12
nuc45_conf-0.log	Energy: -405769.2312144
S         -2.27534       -0.08368        0.00000
C         -0.50789        0.00000        0.00000
C          0.22047       -1.19973        0.00002
C          1.61440       -1.13546        0.00002
N          2.31032        0.00468       -0.00000
C          1.61093        1.14151       -0.00002
C          0.21572        1.20128       -0.00002
H         -2.49555        1.25001       -0.00002
H         -0.28685       -2.16699        0.00004
H          2.19598       -2.06488        0.00003
H          2.18867        2.07353       -0.00004
H         -0.29087        2.16888       -0.00003
