15
nuc21_conf-0.log	Energy: -524090.4218465
S         -3.42474       -0.08212        0.00000
C         -1.65854        0.00188        0.00000
C         -0.94894        1.21667        0.00003
C          0.44225        1.21789        0.00003
C          1.12362        0.00052       -0.00000
N          2.59361        0.00105       -0.00000
O          3.15887       -1.08168       -0.00003
O          3.15842        1.08417        0.00003
C          0.44134       -1.21748       -0.00003
C         -0.94872       -1.21438       -0.00003
H         -3.64827        1.25070        0.00003
H         -1.48649        2.16704        0.00005
H          1.01199        2.14639        0.00005
H          1.01061       -2.14620       -0.00005
H         -1.49175       -2.16192       -0.00005
