15
nuc22_conf-0.log	Energy: -500838.7476971
S         -3.19344       -0.09730       -0.00001
C         -1.45357        0.09554       -0.00000
N         -0.75553        1.18361       -0.00000
C          0.56848        0.74099       -0.00000
C          0.57023       -0.66568        0.00000
C          1.72206       -1.43853        0.00001
C          2.92937       -0.72877        0.00001
C          2.95648        0.67873        0.00001
C          1.78199        1.43626        0.00000
O         -0.74273       -1.07295        0.00000
H         -3.40373        1.23772       -0.00001
H          1.68631       -2.52861        0.00001
H          3.87138       -1.28148        0.00001
H          3.92220        1.18920        0.00001
H          1.79906        2.52710       -0.00000
