15
nuc24_conf-37.log	Energy: -443071.6962036
S          2.01253       -1.06050       -0.12991
C          1.58300        0.67795        0.28139
C          0.12062        0.99291        0.03115
O         -0.65549       -0.09164        0.14275
C         -2.06680        0.09072       -0.06735
C         -2.72958       -1.26413        0.04752
O         -0.29188        2.09961       -0.20916
H          3.34954       -0.87522       -0.03004
H          1.78444        0.88094        1.34650
H          2.17174        1.38691       -0.31481
H         -2.44559        0.80552        0.68100
H         -2.22033        0.54839       -1.05757
H         -2.55818       -1.70166        1.04276
H         -3.81509       -1.16610       -0.10711
H         -2.33158       -1.95925       -0.70721
