15
nuc24_conf-22.log	Energy: -443073.1184940
S         -2.25377       -0.88311       -0.28912
C         -1.49687        0.49641        0.65840
C         -0.13942        0.89107        0.11794
O          0.75486       -0.09691        0.30008
C          2.07811        0.12831       -0.21497
C          2.90514       -1.10533        0.07271
O          0.12054        1.94296       -0.40873
H         -1.29704       -1.78833        0.01721
H         -2.17295        1.35323        0.55090
H         -1.41892        0.22491        1.72166
H          2.00727        0.33871       -1.29421
H          2.49669        1.02934        0.26161
H          2.47153       -1.99168       -0.41540
H          3.92963       -0.96872       -0.30621
H          2.95928       -1.29879        1.15503
