15
nuc24_conf-36.log	Energy: -443071.6962030
S          2.01254       -1.06050       -0.12990
C          1.58300        0.67795        0.28138
C          0.12062        0.99291        0.03115
O         -0.65549       -0.09164        0.14274
C         -2.06680        0.09072       -0.06736
C         -2.72958       -1.26413        0.04753
O         -0.29188        2.09962       -0.20915
H          3.34954       -0.87522       -0.03005
H          1.78445        0.88095        1.34649
H          2.17174        1.38690       -0.31483
H         -2.44558        0.80552        0.68098
H         -2.22034        0.54838       -1.05758
H         -2.33158       -1.95926       -0.70720
H         -2.55818       -1.70166        1.04277
H         -3.81510       -1.16610       -0.10710
