15
nuc24_conf-9.log	Energy: -443072.8126465
S          2.76780       -0.22109       -0.33419
C          1.22368       -0.69103        0.52209
C          0.07858        0.26030        0.22943
O         -1.08107       -0.39955        0.11040
C         -2.25841        0.39982       -0.11120
C         -3.44130       -0.53663       -0.22120
O          0.18329        1.45947        0.15119
H          2.66498        1.09261       -0.02647
H          0.96100       -1.70799        0.20401
H          1.37479       -0.70941        1.61448
H         -2.36611        1.11102        0.72356
H         -2.11260        0.99645       -1.02571
H         -4.36296        0.04080       -0.39136
H         -3.31122       -1.23665       -1.06057
H         -3.56566       -1.12351        0.70169
