15
nuc24_conf-10.log	Energy: -443072.8126967
S         -2.76779       -0.22110       -0.33420
C         -1.22368       -0.69103        0.52210
C         -0.07858        0.26030        0.22943
O          1.08107       -0.39955        0.11041
C          2.25841        0.39982       -0.11120
C          3.44130       -0.53663       -0.22120
O         -0.18328        1.45948        0.15118
H         -2.66500        1.09260       -0.02646
H         -1.37480       -0.70939        1.61448
H         -0.96100       -1.70798        0.20403
H          2.11260        0.99645       -1.02572
H          2.36612        1.11102        0.72355
H          4.36296        0.04079       -0.39137
H          3.56565       -1.12351        0.70169
H          3.31121       -1.23666       -1.06057
