15
nuc24_conf-27.log	Energy: -443072.9337966
S          2.20221       -0.80038        0.20722
C          1.46877        0.79468       -0.33473
C         -0.01244        0.86341       -0.03451
O         -0.69376       -0.00026       -0.81085
C         -2.10702       -0.12755       -0.56836
C         -2.38379       -1.07040        0.58890
O         -0.52043        1.58166        0.78900
H          1.48019       -1.56656       -0.64149
H          1.97594        1.57922        0.23978
H          1.65141        0.94847       -1.40827
H         -2.52562        0.87082       -0.37368
H         -2.51835       -0.51353       -1.51173
H         -1.98919       -0.65620        1.52804
H         -3.46947       -1.21496        0.70580
H         -1.91988       -2.05319        0.41303
