15
nuc24_conf-3.log	Energy: -443072.4831350
S          2.76842        0.04851       -0.10179
C          1.20817       -0.70204        0.47908
C         -0.02181        0.04808        0.00353
O         -1.02904       -0.79848       -0.25426
C         -2.29201       -0.21996       -0.64147
C         -3.09254        0.23015        0.56713
O         -0.09985        1.24828       -0.09294
H          2.38190        1.31781        0.16351
H          1.17879       -1.73852        0.11932
H          1.17463       -0.73115        1.58137
H         -2.10085        0.62058       -1.32458
H         -2.80547       -1.02197       -1.18987
H         -2.57974        1.05153        1.08832
H         -4.08220        0.59264        0.24710
H         -3.24154       -0.60283        1.27147
