15
nuc24_conf-31.log	Energy: -443071.3501228
S          2.13566       -0.85309        0.12036
C          1.46959        0.84665       -0.10821
C         -0.04525        0.86501       -0.05745
O         -0.57118       -0.21916       -0.64480
C         -2.00570       -0.34687       -0.64106
C         -2.50291       -0.93207        0.66825
O         -0.69044        1.76141        0.42561
H          3.39865       -0.45013        0.39217
H          1.82941        1.52243        0.67699
H          1.78029        1.24899       -1.08678
H         -2.44990        0.64190       -0.82805
H         -2.22651       -1.00963       -1.48934
H         -2.01237       -1.89534        0.87583
H         -2.30126       -0.24376        1.50185
H         -3.59038       -1.09930        0.61595
