15
nuc24_conf-25.log	Energy: -443073.1184871
S          2.25377       -0.88312       -0.28912
C          1.49688        0.49642        0.65839
C          0.13942        0.89107        0.11793
O         -0.75486       -0.09690        0.30009
C         -2.07811        0.12831       -0.21497
C         -2.90514       -1.10533        0.07271
O         -0.12054        1.94296       -0.40873
H          1.29703       -1.78833        0.01722
H          1.41893        0.22493        1.72166
H          2.17296        1.35324        0.55089
H         -2.49669        1.02934        0.26163
H         -2.00727        0.33872       -1.29420
H         -2.47152       -1.99168       -0.41541
H         -2.95927       -1.29880        1.15503
H         -3.92962       -0.96873       -0.30621
