15
nuc24_conf-7.log	Energy: -443072.8126911
S         -2.76778       -0.22111       -0.33421
C         -1.22368       -0.69101        0.52213
C         -0.07858        0.26031        0.22945
O          1.08106       -0.39955        0.11042
C          2.25841        0.39982       -0.11121
C          3.44129       -0.53664       -0.22121
O         -0.18328        1.45948        0.15118
H         -2.66500        1.09259       -0.02649
H         -1.37482       -0.70934        1.61451
H         -0.96100       -1.70798        0.20409
H          2.11259        0.99643       -1.02573
H          2.36612        1.11102        0.72353
H          3.31120       -1.23668       -1.06056
H          4.36295        0.04078       -0.39139
H          3.56565       -1.12351        0.70169
