15
nuc24_conf-32.log	Energy: -443071.3501203
S         -2.13568       -0.85309       -0.12036
C         -1.46958        0.84664        0.10820
C          0.04525        0.86500        0.05745
O          0.57118       -0.21917        0.64479
C          2.00571       -0.34687        0.64106
C          2.50292       -0.93207       -0.66825
O          0.69044        1.76141       -0.42560
H         -3.39866       -0.45011       -0.39216
H         -1.82940        1.52242       -0.67700
H         -1.78029        1.24900        1.08677
H          2.44989        0.64190        0.82806
H          2.22650       -1.00964        1.48934
H          2.01239       -1.89534       -0.87584
H          2.30128       -0.24374       -1.50185
H          3.59040       -1.09929       -0.61595
