15
nuc24_conf-28.log	Energy: -443072.7058896
S          2.52012       -0.48491       -0.16077
C          1.32356        0.63096        0.67327
C         -0.03452        0.62752        0.00583
O         -0.62910       -0.57259        0.14105
C         -1.92071       -0.74021       -0.47265
C         -3.03390       -0.22337        0.42089
O         -0.52416        1.56496       -0.57202
H          1.82620       -1.62003        0.08127
H          1.22474        0.35351        1.73330
H          1.74066        1.64262        0.59981
H         -1.92161       -0.22196       -1.44284
H         -2.01010       -1.82264       -0.64211
H         -3.00203       -0.70962        1.40821
H         -2.94757        0.86451        0.55580
H         -4.01274       -0.43606       -0.03741
