15
nuc24_conf-35.log	Energy: -443071.6962087
S          2.01253       -1.06051       -0.12990
C          1.58300        0.67796        0.28137
C          0.12062        0.99291        0.03114
O         -0.65549       -0.09164        0.14274
C         -2.06680        0.09072       -0.06736
C         -2.72958       -1.26413        0.04753
O         -0.29189        2.09962       -0.20913
H          3.34954       -0.87523       -0.03003
H          1.78446        0.88097        1.34647
H          2.17173        1.38690       -0.31486
H         -2.44558        0.80552        0.68099
H         -2.22035        0.54838       -1.05758
H         -3.81509       -1.16611       -0.10709
H         -2.33158       -1.95926       -0.70720
H         -2.55816       -1.70167        1.04276
