15
nuc24_conf-18.log	Energy: -443072.8126541
S         -2.76778       -0.22111       -0.33421
C         -1.22369       -0.69101        0.52213
C         -0.07858        0.26031        0.22945
O          1.08106       -0.39955        0.11042
C          2.25841        0.39982       -0.11120
C          3.44129       -0.53664       -0.22122
O         -0.18328        1.45948        0.15119
H         -2.66498        1.09260       -0.02653
H         -1.37483       -0.70933        1.61451
H         -0.96100       -1.70798        0.20410
H          2.11258        0.99644       -1.02572
H          2.36612        1.11102        0.72354
H          3.56565       -1.12351        0.70167
H          3.31119       -1.23667       -1.06058
H          4.36295        0.04078       -0.39140
