15
nuc24_conf-5.log	Energy: -443072.4831049
S         -2.76842        0.04851       -0.10179
C         -1.20817       -0.70205        0.47907
C          0.02181        0.04808        0.00352
O          1.02905       -0.79848       -0.25426
C          2.29201       -0.21997       -0.64146
C          3.09253        0.23017        0.56713
O          0.09985        1.24828       -0.09295
H         -2.38188        1.31781        0.16350
H         -1.17463       -0.73116        1.58137
H         -1.17880       -1.73852        0.11931
H          2.80548       -1.02198       -1.18985
H          2.10085        0.62057       -1.32459
H          3.24153       -0.60281        1.27148
H          4.08220        0.59265        0.24710
H          2.57973        1.05154        1.08831
