15
nuc24_conf-17.log	Energy: -443072.8126886
S          2.76779       -0.22110       -0.33420
C          1.22368       -0.69102        0.52211
C          0.07858        0.26031        0.22944
O         -1.08106       -0.39955        0.11041
C         -2.25841        0.39982       -0.11120
C         -3.44130       -0.53663       -0.22121
O          0.18328        1.45948        0.15119
H          2.66499        1.09260       -0.02649
H          0.96100       -1.70798        0.20405
H          1.37481       -0.70937        1.61450
H         -2.36612        1.11102        0.72354
H         -2.11259        0.99644       -1.02572
H         -4.36296        0.04079       -0.39138
H         -3.31120       -1.23667       -1.06057
H         -3.56565       -1.12351        0.70169
