15
nuc24_conf-2.log	Energy: -443073.0996160
S          2.30353        0.75725       -0.02079
C          1.38738       -0.76478       -0.49090
C         -0.00704       -0.73213        0.09296
O         -0.91730       -0.36780       -0.82203
C         -2.26888       -0.17812       -0.36103
C         -2.45007        1.19766        0.25472
O         -0.25836       -0.97326        1.24930
H          2.21486        0.54446        1.31285
H          1.35459       -0.77300       -1.58752
H          1.91698       -1.65454       -0.12428
H         -2.88892       -0.30348       -1.25972
H         -2.51356       -0.97087        0.36113
H         -2.15307        1.98520       -0.45462
H         -3.50652        1.35270        0.52522
H         -1.84390        1.29626        1.16689
