15
nuc24_conf-6.log	Energy: -443072.8127149
S         -2.76779       -0.22111       -0.33421
C         -1.22368       -0.69101        0.52212
C         -0.07858        0.26031        0.22944
O          1.08106       -0.39955        0.11041
C          2.25841        0.39982       -0.11121
C          3.44130       -0.53664       -0.22121
O         -0.18328        1.45948        0.15118
H         -2.66502        1.09259       -0.02647
H         -1.37481       -0.70936        1.61450
H         -0.96100       -1.70798        0.20407
H          2.11260        0.99643       -1.02573
H          2.36612        1.11102        0.72353
H          4.36296        0.04078       -0.39138
H          3.56565       -1.12351        0.70169
H          3.31120       -1.23668       -1.06056
