15
nuc24_conf-40.log	Energy: -443072.0892781
S          2.67735       -0.28171        0.11414
C          1.22299        0.82623        0.16345
C         -0.02440        0.04652       -0.19898
O         -1.09757        0.85340       -0.17311
C         -2.37335        0.25823       -0.48160
C         -2.97777       -0.42496        0.73181
O         -0.05675       -1.12593       -0.47377
H          3.55772        0.68386        0.46752
H          1.07687        1.26135        1.16442
H          1.32417        1.66389       -0.54401
H         -2.99496        1.09779       -0.82321
H         -2.24141       -0.45371       -1.30969
H         -2.35911       -1.27871        1.04417
H         -3.06745        0.27852        1.57397
H         -3.98377       -0.80143        0.48763
