15
nuc24_conf-41.log	Energy: -443072.4149768
S         -2.80269        0.01874       -0.00001
C         -1.18525       -0.83521        0.00001
C         -0.06874        0.18937        0.00000
O          1.12518       -0.42319        0.00001
C          2.28511        0.42901        0.00001
C          3.51191       -0.45617       -0.00001
O         -0.21705        1.38443        0.00000
H         -3.52616       -1.12531        0.00001
H         -1.06420       -1.47738        0.88633
H         -1.06419       -1.47739       -0.88631
H          2.24461        1.08346       -0.88551
H          2.24462        1.08344        0.88553
H          4.42206        0.16307       -0.00001
H          3.53156       -1.10081        0.89201
H          3.53155       -1.10080       -0.89204
