15
nuc24_conf-1.log	Energy: -443073.0994842
S         -2.30359        0.75721       -0.02083
C         -1.38736       -0.76478       -0.49090
C          0.00704       -0.73208        0.09300
O          0.91734       -0.36788       -0.82200
C          2.26891       -0.17819       -0.36097
C          2.45013        1.19766        0.25462
O          0.25831       -0.97308        1.24938
H         -2.21491        0.54444        1.31282
H         -1.91694       -1.65456       -0.12430
H         -1.35454       -0.77301       -1.58753
H          2.51354       -0.97086        0.36129
H          2.88898       -0.30367       -1.25963
H          2.15319        1.98513       -0.45482
H          1.84392        1.29638        1.16676
H          3.50657        1.35269        0.52514
