8
nuc25_conf-3.log	Energy: -344076.7134558
S          1.30918       -0.02781        0.04303
C         -0.50319       -0.12368       -0.00595
N         -1.12883        1.10432       -0.05193
N         -1.15178       -1.21595       -0.00369
H          1.41851        1.10383       -0.69134
H         -0.70338        1.85118        0.48600
H         -2.13939        1.03981        0.04258
H         -0.53915       -2.02644       -0.10062
