8
nuc25_conf-5.log	Energy: -344075.8246520
S          1.31492       -0.07240        0.03618
C         -0.48322       -0.12314       -0.01203
N         -1.08885        1.12315       -0.04930
N         -1.02788       -1.27085       -0.02317
H          1.44187        1.13464       -0.56349
H         -0.61801        1.87498        0.44265
H         -2.09756        1.12414        0.07305
H         -2.04862       -1.20255        0.04843
