8
nuc25_conf-0.log	Energy: -344077.2208073
S         -1.29910       -0.13457       -0.03887
C          0.50240        0.13091        0.00412
N          1.15716       -1.07689       -0.04646
N          1.12422        1.23891        0.00607
H         -1.60637        1.05920        0.51286
H          2.16735       -1.00524        0.02787
H          0.73541       -1.86255        0.43481
H          0.50515        2.04208       -0.09558
