11
nuc09_conf-0.log	Energy: -704254.2350089
S          3.10027        0.05059       -0.00005
C          1.32988        0.00183       -0.00002
C          0.59784        1.20673        0.00003
N         -0.73058        1.20189        0.00005
C         -1.33920        0.02908        0.00003
Cl        -3.08239       -0.00491        0.00006
C         -0.62425       -1.17786       -0.00003
N          0.70534       -1.17720       -0.00005
H          3.22756       -1.29495       -0.00010
H          1.10306        2.17830        0.00005
H         -1.14325       -2.14076       -0.00005
