11
nuc09_conf-1.log	Energy: -704254.5221447
S         -3.09909       -0.10380       -0.00004
C         -1.32967       -0.01327       -0.00002
C         -0.60506        1.19572        0.00002
N          0.72387        1.19799        0.00003
C          1.34051        0.03061        0.00002
Cl         3.08377        0.00827        0.00004
C          0.63201       -1.18140       -0.00002
N         -0.69554       -1.18767       -0.00003
H         -3.30942        1.23250       -0.00002
H         -1.11128        2.16675        0.00003
H          1.15712       -2.14114       -0.00003
