15
nuc27_conf-0.log	Energy: -466856.7504549
S         -2.46728       -0.82574        0.00002
C         -1.30843        0.57035       -0.00001
C          0.13836        0.19612       -0.00001
C          1.07319        1.24442        0.00001
C          2.43863        0.96640        0.00002
C          2.88242       -0.36045        0.00000
C          1.95678       -1.40850       -0.00001
C          0.58922       -1.13272       -0.00002
O         -1.69895        1.71186       -0.00002
H         -3.54481       -0.01072       -0.00000
H          0.70147        2.27025        0.00002
H          3.16144        1.78549        0.00003
H          3.95305       -0.57882        0.00001
H          2.30155       -2.44485       -0.00002
H         -0.12561       -1.95818       -0.00003
