15
nuc27_conf-1.log	Energy: -466855.3744296
S          2.57336       -0.71084       -0.21513
C          1.31868        0.55152        0.13290
C         -0.13075        0.17912        0.05585
C         -0.61721       -1.12039        0.26355
C         -1.98856       -1.37425        0.20768
C         -2.88349       -0.33468       -0.06059
C         -2.40569        0.96558       -0.25607
C         -1.03801        1.22426       -0.18630
O          1.69153        1.66476        0.40568
H          1.75735       -1.65119       -0.73826
H          0.07271       -1.93143        0.50197
H         -2.35981       -2.38674        0.38127
H         -3.95607       -0.53678       -0.11052
H         -3.10386        1.78081       -0.45942
H         -0.64611        2.23378       -0.32039
