14
nuc08_conf-1.log	Energy: -728954.6351483
S          2.49205        0.12176        0.00183
C          0.79208        0.60862       -0.00190
C         -0.19414       -0.37912       -0.00430
Cl         0.24640       -2.07588        0.00012
C         -1.56508       -0.01398       -0.00509
N         -2.54960       -0.95533       -0.03848
N         -1.94016        1.27151        0.00399
C         -0.99515        2.21134        0.00277
C          0.37174        1.95298       -0.00148
H          2.98147        1.38219        0.00515
H         -2.32371       -1.92296        0.14281
H         -3.49459       -0.62935        0.11477
H         -1.34726        3.24951        0.00840
H          1.09410        2.77024       -0.00094
