14
elec01_conf-1.log	Energy: -508523.5064146
N         -1.17978        1.44822        0.00006
C         -0.07955        2.21790        0.00011
N          1.19290        1.81751        0.00010
C          1.30680        0.49253        0.00003
C          0.24388       -0.43934       -0.00002
C         -1.04699        0.12063       -0.00000
N          0.72568       -1.73161       -0.00008
C          2.02721       -1.59811       -0.00006
N          2.44430       -0.28093        0.00000
H          3.39634        0.06567        0.00003
H          2.74437       -2.41991       -0.00010
H         -0.25343        3.29959        0.00015
S         -2.47195       -0.91346       -0.00006
H         -3.32583        0.13602       -0.00002
