14
elec01_g16.log	Energy: -508524.1125235
N          1.15025        1.50050        0.00005
C          0.02775        2.23675        0.00009
N         -1.23422        1.80028        0.00008
C         -1.31032        0.47283        0.00003
C         -0.22043       -0.42364       -0.00002
C          1.05465        0.17204        0.00000
N         -0.65892       -1.73101       -0.00006
C         -1.96543       -1.64066       -0.00005
N         -2.42335       -0.33823        0.00000
H         -3.38660       -0.02370        0.00002
H         -2.65524       -2.48538       -0.00008
H          0.16842        3.32322        0.00013
S          2.53908       -0.77333       -0.00005
H          1.89455       -1.96558       -0.00009
