13
nuc07_conf-0.log	Energy: -644887.6415797
S          2.60446       -0.13320        0.00002
C          0.84046       -0.02038        0.00001
C          0.09305       -1.20574       -0.00002
F          0.72894       -2.37907       -0.00004
C         -1.30120       -1.17089       -0.00003
F         -1.97535       -2.32048       -0.00006
C         -1.98565        0.04142       -0.00002
C         -1.24897        1.22207        0.00001
F         -1.87181        2.40081        0.00003
C          0.14605        1.19715        0.00002
F          0.82278        2.35212        0.00005
H          2.80035        1.20361        0.00004
H         -3.07513        0.06554       -0.00002
