19
nuc03_conf-0.log	Energy: -445071.1084162
S         -2.98396        0.30411       -0.00005
C         -1.24792       -0.08938       -0.00002
C         -0.75674       -1.39963       -0.00002
C          0.62175       -1.61935        0.00000
C          1.54082       -0.56419        0.00003
C          3.02331       -0.83104        0.00005
C          1.04476        0.75983        0.00002
C          1.99484        1.92941        0.00004
C         -0.33643        0.97745       -0.00000
H         -3.43417       -0.96986       -0.00005
H         -1.44262       -2.24990       -0.00004
H          0.99302       -2.64800        0.00001
H          3.51665       -0.39151       -0.88359
H          3.23464       -1.90999        0.00005
H          3.51662       -0.39151        0.88372
H          1.45473        2.88673        0.00004
H          2.65489        1.91259       -0.88353
H          2.65486        1.91258        0.88364
H         -0.71149        2.00453       -0.00000
