19
nuc03_conf-1.log	Energy: -445071.0935887
S          3.01251        0.14192       -0.00006
C          1.24752       -0.08835       -0.00002
C          0.75415       -1.39916       -0.00001
C         -0.62321       -1.61794        0.00002
C         -1.54172       -0.56110        0.00003
C         -3.02456       -0.82631        0.00006
C         -1.04450        0.76136        0.00002
C         -1.99283        1.93251        0.00003
C          0.33801        0.97854       -0.00001
H          2.99635        1.49300       -0.00005
H          1.44292       -2.24720       -0.00002
H         -0.99622       -2.64590        0.00003
H         -3.51756       -0.38648       -0.88365
H         -3.51753       -0.38647        0.88378
H         -3.23687       -1.90504        0.00006
H         -2.65295        1.91687       -0.88350
H         -1.45171        2.88941        0.00002
H         -2.65292        1.91687        0.88359
H          0.70917        2.00691       -0.00002
