19
nuc03_conf-3.log	Energy: -445071.0936170
S         -3.01251        0.14192       -0.00000
C         -1.24752       -0.08835       -0.00000
C         -0.75415       -1.39916        0.00000
C          0.62321       -1.61794        0.00000
C          1.54172       -0.56110       -0.00000
C          3.02456       -0.82631       -0.00000
C          1.04450        0.76136       -0.00000
C          1.99283        1.93251        0.00001
C         -0.33801        0.97854       -0.00000
H         -2.99634        1.49300        0.00000
H         -1.44292       -2.24719        0.00001
H          0.99622       -2.64590        0.00001
H          3.51754       -0.38648       -0.88372
H          3.23687       -1.90503       -0.00000
H          3.51755       -0.38647        0.88371
H          2.65295        1.91686       -0.88353
H          2.65293        1.91687        0.88356
H          1.45172        2.88941       -0.00000
H         -0.70917        2.00690       -0.00001
