13
nuc02_conf-1.log	Energy: -972543.3638788
Cl         0.03919       -2.00964        0.00000
C         -0.00591       -0.27211        0.00000
C         -1.23089        0.41364       -0.00001
Cl        -2.73200       -0.46411       -0.00001
C         -1.26041        1.81047       -0.00001
C         -0.05982        2.52002       -0.00000
C          1.16234        1.84996        0.00000
C          1.20588        0.44710        0.00001
S          2.72451       -0.47077        0.00001
H         -2.22340        2.32135       -0.00001
H         -0.07689        3.61195       -0.00000
H          2.09419        2.41854        0.00001
H          3.52467        0.61971        0.00002
