16
nuc17_conf-0.log	Energy: -420384.9430304
S          2.66986       -0.21749       -0.43324
C          1.45167        0.46642        0.77193
C          0.01452        0.21341        0.40148
C         -0.49971       -1.09274        0.36308
C         -1.83012       -1.32283        0.01586
C         -2.66981       -0.24998       -0.30663
C         -2.16731        1.05183       -0.27814
C         -0.83286        1.28006        0.07377
H          2.16258        0.40941       -1.51976
H          1.71131       -0.03663        1.71634
H          1.63718        1.54110        0.91015
H          0.15998       -1.93263        0.59507
H         -2.21670       -2.34476       -0.00592
H         -3.71186       -0.43141       -0.58047
H         -2.81439        1.89571       -0.52976
H         -0.44411        2.30201        0.09806
