16
nuc17_conf-2.log	Energy: -420384.9430699
S         -2.66986       -0.21749        0.43324
C         -1.45167        0.46640       -0.77194
C         -0.01452        0.21340       -0.40149
C          0.49972       -1.09275       -0.36308
C          1.83013       -1.32282       -0.01585
C          2.66981       -0.24997        0.30664
C          2.16730        1.05184        0.27813
C          0.83285        1.28006       -0.07378
H         -2.16257        0.40945        1.51975
H         -1.71132       -0.03668       -1.71634
H         -1.63718        1.54108       -0.91019
H         -0.15996       -1.93264       -0.59507
H          2.21672       -2.34476        0.00593
H          3.71186       -0.43139        0.58048
H          2.81437        1.89572        0.52976
H          0.44409        2.30201       -0.09808
