20
nuc13_conf-7.log	Energy: -526295.1078644
S          0.56792        2.04277       -0.52487
C         -0.60920        0.75337       -0.15704
C         -0.18324       -0.59146       -0.12981
C          1.23004       -1.01554       -0.44766
N          2.22857       -0.49535        0.33098
C          2.12093        0.09679        1.64894
O          1.46232       -1.78232       -1.36703
C         -1.12531       -1.60546        0.08839
C         -2.46520       -1.30817        0.32907
C         -2.87987        0.02663        0.32373
C         -1.96317        1.04715        0.07565
H         -0.33758        3.04600       -0.54190
H          3.15131       -0.79258        0.02545
H          2.64298       -0.52031        2.40022
H          2.53928        1.11576        1.67518
H          1.06538        0.16079        1.94112
H         -0.78244       -2.64187        0.06048
H         -3.18329       -2.11068        0.50942
H         -3.92725        0.27971        0.50491
H         -2.30353        2.08505        0.05474
