20
nuc13_conf-6.log	Energy: -526295.5122993
S         -0.03324        2.31267        0.17705
C         -0.87209        0.72717        0.04838
C         -0.24314       -0.53808        0.05590
C          1.24066       -0.83186        0.16107
N          2.08857        0.08525       -0.38275
C          3.52153       -0.10632       -0.41301
O          1.62908       -1.87627        0.66422
C         -1.05346       -1.68313       -0.02485
C         -2.43473       -1.59632       -0.17560
C         -3.04375       -0.34018       -0.21791
C         -2.26700        0.80980       -0.08675
H          0.86094        1.96417        1.13041
H          1.69250        0.91229       -0.81763
H          4.04739        0.77177       -0.00280
H          3.75823       -0.98706        0.19716
H          3.88825       -0.28231       -1.43916
H         -0.55211       -2.65051        0.02988
H         -3.03463       -2.50566       -0.25309
H         -4.12706       -0.25125       -0.32824
H         -2.74233        1.79273       -0.06719
