20
nuc13_conf-4.log	Energy: -526296.6730587
S          0.14317        2.20981        0.25192
C         -0.84826        0.73456        0.03228
C         -0.25866       -0.54961        0.02593
C          1.21684       -0.85119        0.15220
N          2.06710        0.03177       -0.44653
C          3.50474       -0.11338       -0.38788
O          1.60231       -1.85465        0.73243
C         -1.09246       -1.67610       -0.05836
C         -2.47332       -1.55743       -0.18040
C         -3.04865       -0.28388       -0.19556
C         -2.24500        0.84790       -0.07944
H         -0.88208        3.07732        0.09742
H          1.67962        0.79097       -0.99484
H          3.98027        0.81750       -0.03776
H          3.73258       -0.92408        0.31561
H          3.93015       -0.37530       -1.37208
H         -0.61204       -2.65509       -0.01918
H         -3.09818       -2.44961       -0.25642
H         -4.13113       -0.16565       -0.28586
H         -2.70945        1.83654       -0.06389
