20
nuc13_conf-3.log	Energy: -526298.4359336
S         -0.75779        2.28824        0.09035
C         -1.11225        0.54703        0.04185
C         -0.07484       -0.40824       -0.08589
C          1.34985        0.05189       -0.16308
N          2.29485       -0.84916        0.24324
C          3.70773       -0.53965        0.23475
O          1.63744        1.17167       -0.56463
C         -0.40441       -1.77143       -0.17125
C         -1.72293       -2.21204       -0.09983
C         -2.74277       -1.26922        0.06037
C         -2.44049        0.08819        0.12435
H         -2.01753        2.61769        0.47632
H          1.98512       -1.68521        0.72024
H          3.84133        0.39615       -0.32267
H          4.10394       -0.39510        1.25501
H          4.28653       -1.33927       -0.25584
H          0.39291       -2.50155       -0.32705
H         -1.95432       -3.27621       -0.17701
H         -3.78550       -1.58994        0.12238
H         -3.25060        0.81318        0.22973
