21
nuc31_conf-71.log	Energy: -398736.5831690
S          3.11158        0.50984        0.07045
C          1.70720       -0.53630       -0.47852
C          0.40027       -0.28025        0.26535
C         -0.75494       -1.13848       -0.26350
C         -2.10110       -0.92950        0.45305
C         -3.00683        0.16642       -0.12600
C         -2.44487        1.58827       -0.09437
H          3.16776        0.03703        1.33757
H          1.59565       -0.29796       -1.54875
H          1.99814       -1.59731       -0.42001
H          0.54654       -0.49478        1.33931
H          0.16008        0.79127        0.20183
H         -0.88433       -0.95821       -1.34696
H         -0.46022       -2.19876       -0.17409
H         -2.66667       -1.87597        0.42469
H         -1.91471       -0.72624        1.52383
H         -3.26076       -0.09918       -1.16847
H         -3.96230        0.14800        0.42705
H         -2.13676        1.87695        0.92444
H         -1.56758        1.70005       -0.75024
H         -3.19856        2.31672       -0.43347
