21
nuc31_conf-110.log	Energy: -398737.1569216
S         -2.46902       -0.81624       -0.31984
C         -1.87737        0.64938        0.63071
C         -0.79913        1.39906       -0.15273
C          0.43256        0.57307       -0.54526
C          1.14452       -0.10019        0.62992
C          2.41527       -0.86623        0.24181
C          3.55622        0.01147       -0.27498
H         -3.39496       -1.21422        0.58193
H         -2.73015        1.31727        0.82190
H         -1.48736        0.31034        1.60198
H         -1.25138        1.82820       -1.06297
H         -0.48084        2.25574        0.46836
H          0.14053       -0.20270       -1.27506
H          1.13080        1.24040       -1.07707
H          1.39544        0.66092        1.39326
H          0.44747       -0.80589        1.11178
H          2.76795       -1.43180        1.12156
H          2.15778       -1.62466       -0.51958
H          3.83229        0.78068        0.46619
H          4.45713       -0.58684       -0.48440
H          3.28720        0.53303       -1.20723
