21
nuc31_conf-95.log	Energy: -398736.3838582
S         -2.39460        0.83378       -0.29197
C         -1.90082       -0.76989        0.46582
C         -0.40549       -0.91771        0.73780
C          0.45748       -1.03278       -0.52201
C          1.97324       -0.97756       -0.25881
C          2.59566        0.42239       -0.36402
C          2.02321        1.47757        0.58393
H         -1.93363        0.58506       -1.53813
H         -2.46719       -0.79912        1.40903
H         -2.28203       -1.59124       -0.16151
H         -0.07461       -0.06794        1.35366
H         -0.25569       -1.82323        1.35437
H          0.19859       -1.97727       -1.03190
H          0.19022       -0.22683       -1.22764
H          2.18794       -1.40516        0.73801
H          2.49118       -1.63120       -0.98033
H          3.68309        0.33390       -0.19400
H          2.48367        0.77758       -1.40482
H          0.96110        1.68351        0.37756
H          2.10417        1.15881        1.63685
H          2.56716        2.43043        0.48402
