21
nuc31_conf-118.log	Energy: -398737.2924047
S          2.91400       -0.54191       -0.06130
C          1.40908        0.40560        0.41113
C          0.42917        0.41468       -0.75977
C         -0.83068        1.25038       -0.49887
C         -1.67705        0.80999        0.70452
C         -2.13228       -0.65519        0.68745
C         -2.97751       -1.03668       -0.52824
H          3.55030       -0.43614        1.12780
H          0.95695       -0.06449        1.29658
H          1.69293        1.43596        0.67853
H          0.94315        0.81167       -1.65167
H          0.15387       -0.62510       -1.00521
H         -0.53907        2.30602       -0.35724
H         -1.45043        1.23330       -1.41114
H         -1.11812        0.99789        1.63760
H         -2.56787        1.46098        0.75766
H         -1.25292       -1.32069        0.74554
H         -2.71036       -0.84985        1.60720
H         -3.86003       -0.38130       -0.62115
H         -2.40739       -0.95606       -1.46743
H         -3.33925       -2.07431       -0.45368
