21
nuc31_conf-43.log	Energy: -398738.2447438
S         -2.61010       -0.80814       -0.26074
C         -1.88522        0.64208        0.60748
C         -0.79898        1.39001       -0.16806
C          0.43799        0.56535       -0.53677
C          1.18377       -0.03259        0.65897
C          2.43258       -0.84133        0.28590
C          3.55828       -0.01820       -0.34202
H         -1.54979       -1.63544       -0.11889
H         -2.74642        1.30428        0.78351
H         -1.53178        0.31823        1.59758
H         -1.24395        1.80046       -1.08957
H         -0.48978        2.25684        0.44565
H          0.13728       -0.24645       -1.22259
H          1.11952        1.21046       -1.11499
H          1.46801        0.77844        1.35570
H          0.50134       -0.68917        1.22653
H          2.81487       -1.33935        1.19363
H          2.14170       -1.65440       -0.40409
H          4.44740       -0.63939       -0.53394
H          3.25744        0.42748       -1.30328
H          3.86522        0.80636        0.32349
