21
nuc31_conf-13.log	Energy: -398738.9080615
S         -2.47462       -1.01445       -0.22471
C         -1.84158        0.36657        0.81180
C         -1.06018        1.44352        0.05658
C          0.20122        0.95794       -0.66299
C          1.24557        0.30508        0.24414
C          2.52479       -0.09619       -0.49274
C          3.56167       -0.76241        0.40982
H         -1.28666       -1.62662       -0.43155
H         -2.74867        0.80138        1.25822
H         -1.25567       -0.05659        1.64117
H         -1.73253        1.91837       -0.67696
H         -0.78539        2.22776        0.78668
H         -0.08972        0.24849       -1.45747
H          0.66133        1.81668       -1.18202
H          1.49987        0.99536        1.07021
H          0.81856       -0.59280        0.72737
H          2.26358       -0.77597       -1.32393
H          2.96495        0.79962       -0.96672
H          4.47007       -1.03823       -0.14865
H          3.86531       -0.09171        1.23092
H          3.15998       -1.68154        0.86839
