21
nuc31_conf-101.log	Energy: -398736.3838795
S          2.39461        0.83378       -0.29197
C          1.90082       -0.76988        0.46583
C          0.40549       -0.91770        0.73780
C         -0.45748       -1.03277       -0.52201
C         -1.97324       -0.97756       -0.25881
C         -2.59566        0.42239       -0.36402
C         -2.02322        1.47756        0.58393
H          1.93365        0.58505       -1.53813
H          2.28204       -1.59124       -0.16150
H          2.46719       -0.79912        1.40904
H          0.25569       -1.82322        1.35437
H          0.07461       -0.06794        1.35366
H         -0.19022       -0.22681       -1.22764
H         -0.19858       -1.97726       -1.03191
H         -2.49117       -1.63120       -0.98033
H         -2.18793       -1.40516        0.73800
H         -2.48368        0.77757       -1.40482
H         -3.68309        0.33389       -0.19401
H         -2.56718        2.43043        0.48401
H         -2.10420        1.15881        1.63685
H         -0.96112        1.68351        0.37756
