21
nuc31_conf-50.log	Energy: -398736.5393733
S         -1.99253       -1.15315       -0.29524
C         -1.47254        0.11353        0.93097
C         -1.03217        1.45271        0.33931
C          0.12442        1.42711       -0.66707
C          1.47741        0.93594       -0.12369
C          1.72808       -0.57329       -0.22268
C          3.10546       -0.98052        0.29749
H         -3.03047       -0.44977       -0.80589
H         -2.29048        0.26444        1.65143
H         -0.65189       -0.36716        1.48393
H         -1.90788        1.92605       -0.13961
H         -0.75952        2.11138        1.18513
H         -0.16640        0.81612       -1.53833
H          0.24534        2.45681       -1.04262
H          2.28679        1.44459       -0.67666
H          1.59404        1.26159        0.92759
H          0.95125       -1.13161        0.32351
H          1.61993       -0.88316       -1.27679
H          3.22496       -0.71677        1.36195
H          3.27114       -2.06533        0.20262
H          3.90970       -0.46967       -0.25836
