21
nuc31_conf-40.log	Energy: -398738.0057355
S          2.86056       -0.82424       -0.18743
C          2.22994        0.83989        0.29944
C          0.82167        1.06037       -0.24988
C         -0.24427        0.13122        0.33406
C         -1.64370        0.39466       -0.22083
C         -2.71712       -0.52834        0.35834
C         -4.11279       -0.26251       -0.20327
H          4.07550       -0.70235        0.39396
H          2.22735        0.91659        1.39839
H          2.91436        1.60435       -0.09697
H          0.54155        2.10918       -0.04475
H          0.84151        0.95965       -1.34972
H          0.03474       -0.91920        0.14255
H         -0.25672        0.24117        1.43413
H         -1.92438        1.44707       -0.02795
H         -1.62581        0.28712       -1.32127
H         -2.43248       -1.57831        0.16514
H         -2.73252       -0.41991        1.45796
H         -4.43695        0.77074        0.00581
H         -4.13472       -0.39823       -1.29751
H         -4.86274       -0.94178        0.23201
