21
nuc31_conf-117.log	Energy: -398736.1888270
S         -2.48715       -0.14532       -0.60345
C         -1.15122       -0.85038        0.44333
C         -0.35861        0.16800        1.26302
C          0.28475        1.30936        0.46640
C          1.22753        0.92474       -0.68243
C          2.53140        0.20439       -0.29906
C          2.42743       -1.30892       -0.09095
H         -3.19722        0.40932        0.40719
H         -1.58121       -1.62263        1.09874
H         -0.50194       -1.37188       -0.27545
H         -1.02828        0.60678        2.02388
H          0.40952       -0.38493        1.83110
H         -0.52449        1.92825        0.04570
H          0.83298        1.95595        1.17429
H          0.68096        0.32692       -1.43368
H          1.49375        1.86149       -1.20060
H          3.27168        0.38535       -1.09738
H          2.95340        0.67681        0.60702
H          1.79029       -1.57664        0.76467
H          2.00739       -1.80150       -0.98398
H          3.41982       -1.75141        0.09176
