21
nuc31_conf-57.log	Energy: -398737.3537833
S         -3.03273       -0.47880       -0.18291
C         -1.94355        0.96732        0.17381
C         -0.51077        0.68574       -0.27646
C          0.19159       -0.42593        0.50875
C          1.60468       -0.75040        0.01448
C          2.62214        0.38281        0.17406
C          4.03234       -0.01394       -0.26044
H         -4.16955        0.06167        0.31149
H         -2.34114        1.84484       -0.35712
H         -1.96869        1.17875        1.25465
H         -0.51036        0.43695       -1.35313
H          0.05492        1.62795       -0.18030
H          0.23125       -0.14110        1.57658
H         -0.42337       -1.33977        0.46506
H          1.97546       -1.63712        0.55869
H          1.55857       -1.04972       -1.04927
H          2.29791        1.26311       -0.40757
H          2.63629        0.70785        1.23060
H          4.40636       -0.86735        0.32949
H          4.05178       -0.31508       -1.32120
H          4.74568        0.81622       -0.13648
