21
nuc31_conf-108.log	Energy: -398736.1291258
S          3.00841       -0.27972        0.09331
C          1.67097        0.98118        0.16699
C          0.32906        0.54918       -0.42351
C         -0.31753       -0.64277        0.28707
C         -1.65098       -1.11775       -0.31522
C         -2.91887       -0.44847        0.23367
C         -3.03525        1.05908        0.00492
H          3.08523       -0.33643       -1.25717
H          1.56866        1.19763        1.24285
H          2.03197        1.90376       -0.31167
H         -0.34097        1.42440       -0.40035
H          0.46661        0.30487       -1.49259
H          0.40846       -1.47101        0.26800
H         -0.46103       -0.39790        1.35633
H         -1.61783       -0.99678       -1.41410
H         -1.74835       -2.20246       -0.14062
H         -3.79375       -0.94596       -0.22056
H         -2.98744       -0.65566        1.31721
H         -2.92249        1.31418       -1.06224
H         -4.01752        1.43358        0.33469
H         -2.27041        1.62064        0.56376
