21
nuc31_conf-132.log	Energy: -398736.5537131
S         -2.57845       -0.10538       -0.49749
C         -1.15770       -0.86974        0.38543
C         -0.35711        0.08042        1.27624
C          0.29313        1.26666        0.55477
C          1.22811        0.95681       -0.62410
C          2.53662        0.21871       -0.29364
C          2.43633       -1.30399       -0.17259
H         -1.85749        0.59314       -1.40342
H         -1.61928       -1.66102        0.99544
H         -0.51739       -1.37520       -0.35165
H         -1.02623        0.47461        2.05917
H          0.41075       -0.51431        1.80081
H         -0.51439        1.92492        0.19127
H          0.85077        1.86176        1.29905
H          0.68424        0.39746       -1.40788
H          1.48815        1.92354       -1.08761
H          3.27031        0.44826       -1.08547
H          2.96288        0.63974        0.63528
H          1.80283       -1.62098        0.66846
H          2.01327       -1.74566       -1.09045
H          3.43052       -1.75351       -0.01971
