21
nuc31_conf-54.log	Energy: -398738.2061608
S         -2.76225       -0.32139       -0.05034
C         -1.35909        0.67873       -0.69312
C         -0.33837        1.12030        0.35643
C          0.38355       -0.01815        1.08552
C          1.12020       -1.01519        0.18012
C          2.17348       -0.40699       -0.75564
C          3.29390        0.34388       -0.03557
H         -2.06940       -1.46110        0.17186
H         -0.88405        0.12784       -1.51851
H         -1.84502        1.55846       -1.14172
H          0.39880        1.77041       -0.14862
H         -0.84841        1.75284        1.10160
H          1.09241        0.42320        1.80576
H         -0.35273       -0.56885        1.69470
H          1.60692       -1.77198        0.82079
H          0.38691       -1.57335       -0.42882
H          2.61147       -1.21919       -1.36107
H          1.68543        0.26926       -1.47951
H          4.06021        0.69481       -0.74466
H          2.91658        1.22760        0.50319
H          3.79489       -0.30327        0.70405
