21
nuc31_conf-23.log	Energy: -398738.4630468
S          2.67999        0.93182       -0.12294
C          2.14445       -0.77739        0.29770
C          0.79270       -1.19817       -0.27672
C         -0.39980       -0.40942        0.26187
C         -1.74161       -0.89072       -0.29385
C         -2.96330       -0.14657        0.25772
C         -3.01486        1.33875       -0.10364
H          1.83470        1.58263        0.70747
H          2.94675       -1.41322       -0.10647
H          2.16602       -0.89407        1.39279
H          0.82585       -1.10912       -1.37633
H          0.65076       -2.27219       -0.05400
H         -0.41629       -0.47583        1.36646
H         -0.25755        0.65616        0.01816
H         -1.72766       -0.80138       -1.39604
H         -1.85157       -1.96893       -0.08034
H         -3.87632       -0.64063       -0.11708
H         -2.98954       -0.25957        1.35701
H         -2.16900        1.89729        0.32752
H         -2.98152        1.48248       -1.19684
H         -3.94001        1.80842        0.26624
