21
nuc31_conf-91.log	Energy: -398737.1997372
S          2.13544       -1.08787       -0.29317
C          1.46673        0.12159        0.91826
C          1.02134        1.46054        0.32990
C         -0.13973        1.43036       -0.67192
C         -1.49033        0.93054       -0.13062
C         -1.72166       -0.58361       -0.19935
C         -3.09834       -0.99930        0.31677
H          0.97057       -1.36502       -0.91909
H          0.66509       -0.35630        1.50046
H          2.30456        0.28112        1.61421
H          0.74195        2.11654        1.17566
H          1.89286        1.93092       -0.15535
H         -0.26859        2.45993       -1.04463
H          0.15224        0.83350       -1.55408
H         -1.61874        1.27431        0.91295
H         -2.30180        1.41646       -0.70042
H         -1.60657       -0.91258       -1.24824
H         -0.94569       -1.12057        0.37031
H         -3.24877       -2.08784        0.24267
H         -3.22882       -0.71547        1.37441
H         -3.90343       -0.50987       -0.25632
