21
nuc31_conf-42.log	Energy: -398737.8916976
S          2.99016       -0.46852        0.03049
C          1.41288        0.39625        0.39782
C          0.42487        0.41758       -0.76567
C         -0.83302        1.25459       -0.49569
C         -1.68016        0.81038        0.70634
C         -2.13851       -0.65371        0.68360
C         -2.98279       -1.02975       -0.53445
H          2.44872       -1.69406       -0.16242
H          0.96944       -0.04568        1.30221
H          1.71966        1.42120        0.66307
H          0.94135        0.80957       -1.65681
H          0.14270       -0.62021       -1.01512
H         -0.53724        2.30826       -0.34693
H         -1.45477        1.24750       -1.40689
H         -1.12098        0.99277        1.64021
H         -2.57013        1.46221        0.76252
H         -1.26038       -1.32121        0.74135
H         -2.71791       -0.85070        1.60196
H         -2.41197       -0.94579       -1.47296
H         -3.34668       -2.06699       -0.46423
H         -3.86403       -0.37252       -0.62554
