21
nuc31_conf-61.log	Energy: -398736.6388868
S          2.04993       -1.31100       -0.01596
C          2.28732        0.50803        0.12781
C          1.16406        1.39939       -0.40381
C         -0.18887        1.26629        0.31833
C         -1.17319        0.29281       -0.33776
C         -2.47099        0.11602        0.45068
C         -3.46331       -0.82989       -0.22373
H          1.11722       -1.43435        0.95518
H          2.50459        0.74283        1.18173
H          3.21467        0.69452       -0.43558
H          1.52591        2.43897       -0.31310
H          1.03029        1.21462       -1.48328
H         -0.01613        0.96729        1.36961
H         -0.66968        2.25806        0.37536
H         -1.40931        0.65807       -1.35434
H         -0.68950       -0.68701       -0.48201
H         -2.23105       -0.25953        1.46244
H         -2.94357        1.10352        0.60387
H         -3.75132       -0.45946       -1.22170
H         -3.02619       -1.83302       -0.36056
H         -4.38492       -0.94440        0.36865
