21
nuc31_conf-62.log	Energy: -398736.5393689
S         -1.99252       -1.15315       -0.29524
C         -1.47254        0.11353        0.93097
C         -1.03218        1.45271        0.33931
C          0.12441        1.42711       -0.66707
C          1.47741        0.93594       -0.12369
C          1.72807       -0.57329       -0.22268
C          3.10546       -0.98052        0.29749
H         -3.03046       -0.44977       -0.80589
H         -2.29048        0.26444        1.65142
H         -0.65189       -0.36716        1.48393
H         -1.90789        1.92604       -0.13961
H         -0.75953        2.11139        1.18512
H         -0.16640        0.81613       -1.53833
H          0.24534        2.45682       -1.04261
H          2.28679        1.44459       -0.67665
H          1.59403        1.26158        0.92759
H          0.95125       -1.13162        0.32349
H          1.61993       -0.88315       -1.27680
H          3.22494       -0.71678        1.36195
H          3.27113       -2.06533        0.20262
H          3.90969       -0.46966       -0.25835
