21
nuc31_conf-37.log	Energy: -398738.5668024
S          2.61959       -0.70337       -0.20815
C          1.38060       -0.02021        0.96677
C          0.67357        1.25330        0.50206
C         -0.14400        1.11295       -0.78756
C         -1.21080        0.01149       -0.77784
C         -2.28128        0.16198        0.30578
C         -3.36970       -0.90730        0.22443
H          1.74255       -1.17231       -1.12424
H          0.66343       -0.81449        1.22296
H          1.96356        0.18177        1.87814
H          0.02063        1.59175        1.32651
H          1.42721        2.04533        0.35996
H         -0.62809        2.08220       -0.99982
H          0.55076        0.93270       -1.62509
H         -1.70418       -0.00740       -1.76577
H         -0.73091       -0.97929       -0.67316
H         -1.81118        0.12602        1.30387
H         -2.73742        1.16552        0.22527
H         -4.12594       -0.77993        1.01505
H         -3.89162       -0.87272       -0.74639
H         -2.94259       -1.91855        0.33130
