21
nuc31_conf-81.log	Energy: -398736.1758256
S         -1.93029       -1.22217       -0.26639
C         -2.08742        0.46083        0.46126
C         -1.06552        1.50750        0.01452
C          0.39851        1.19025        0.36936
C          1.19052        0.51823       -0.75948
C          2.60012        0.06897       -0.36002
C          2.62744       -1.10409        0.62211
H         -0.81723       -1.59114        0.40684
H         -3.10228        0.77570        0.17312
H         -2.08627        0.36048        1.55811
H         -1.16000        1.67164       -1.07246
H         -1.36314        2.45624        0.49523
H          0.91975        2.12222        0.64832
H          0.41926        0.56290        1.27853
H          0.62438       -0.34523       -1.14565
H          1.25971        1.22978       -1.60120
H          3.15302       -0.21597       -1.27160
H          3.15061        0.92536        0.07116
H          2.09830       -1.97867        0.20691
H          3.65932       -1.41691        0.84725
H          2.14738       -0.85176        1.58126
