21
nuc31_conf-21.log	Energy: -398738.4488632
S          2.84247       -0.75366       -0.28228
C          2.05923        0.61081        0.67126
C          0.76426        1.16303        0.07798
C         -0.39593        0.16907        0.04825
C         -1.69370        0.77491       -0.49040
C         -2.85573       -0.21682       -0.61864
C         -3.34184       -0.79755        0.71018
H          1.96018       -1.72159        0.05315
H          1.91035        0.27530        1.70986
H          2.83280        1.39330        0.69680
H          0.46985        2.04662        0.67453
H          0.96356        1.52862       -0.94416
H         -0.11537       -0.69524       -0.57908
H         -0.55677       -0.22670        1.06715
H         -2.00156        1.61554        0.15921
H         -1.49071        1.21862       -1.48122
H         -3.69836        0.28968       -1.12020
H         -2.55457       -1.03977       -1.29216
H         -3.64047        0.00318        1.40789
H         -4.21406       -1.45429        0.56446
H         -2.56208       -1.39534        1.20837
