21
nuc31_conf-83.log	Energy: -398735.8457757
S         -2.06700       -1.00306        0.06679
C         -1.84221        0.80150       -0.21571
C         -0.44430        1.27487       -0.62307
C          0.60824        1.35495        0.49184
C          1.10463        0.03298        1.09578
C          1.69891       -0.96657        0.09670
C          2.86889       -0.42600       -0.72593
H         -1.82333       -1.38744       -1.20751
H         -2.58580        1.11716       -0.96273
H         -2.14124        1.26195        0.74012
H         -0.07721        0.65786       -1.46135
H         -0.56615        2.29155       -1.03825
H          1.47289        1.91352        0.09411
H          0.20434        1.98381        1.30570
H          1.87029        0.27768        1.85439
H          0.28177       -0.46177        1.63460
H          2.03015       -1.85761        0.65748
H          0.90143       -1.32549       -0.57547
H          2.56165        0.39875       -1.38919
H          3.67199       -0.04050       -0.07485
H          3.30625       -1.21091       -1.36339
