21
nuc31_conf-137.log	Energy: -398736.0840530
S          2.90891       -0.63437       -0.23158
C          1.37618       -0.01000        0.57407
C          0.71423        1.02758       -0.33232
C         -0.61040        1.58590        0.22018
C         -1.87846        0.83606       -0.20742
C         -1.97503       -0.63088        0.21967
C         -3.31806       -1.26509       -0.14048
H          3.28046       -1.47380        0.76196
H          0.70327       -0.85579        0.76859
H          1.63416        0.44900        1.54122
H          1.43062        1.85245       -0.48168
H          0.54449        0.58877       -1.33184
H         -0.55785        1.62651        1.32378
H         -0.71368        2.63295       -0.10935
H         -2.75398        1.37752        0.19424
H         -1.97219        0.89237       -1.30784
H         -1.16472       -1.21119       -0.25377
H         -1.80924       -0.70617        1.30988
H         -3.49725       -1.22520       -1.22789
H         -3.36424       -2.32191        0.16636
H         -4.15309       -0.73709        0.34949
