21
nuc31_conf-64.log	Energy: -398737.4868391
S          2.73275       -0.78306       -0.29610
C          2.05611        0.63389        0.67258
C          0.76458        1.14724        0.03880
C         -0.39767        0.15248        0.06288
C         -1.67935        0.71815       -0.55172
C         -2.84965       -0.27055       -0.60874
C         -3.36333       -0.72262        0.75913
H          3.83863       -0.96940        0.45976
H          1.86935        0.30600        1.70760
H          2.80992        1.43462        0.69635
H          0.46789        2.06490        0.57779
H          0.96903        1.45729       -1.00151
H         -0.10994       -0.76782       -0.47465
H         -0.58002       -0.15454        1.10760
H         -1.98910        1.61760        0.01314
H         -1.45648        1.06797       -1.57548
H         -3.67849        0.19554       -1.16913
H         -2.54598       -1.15453       -1.19841
H         -4.24037       -1.38149        0.65886
H         -2.59821       -1.28005        1.32233
H         -3.66437        0.14138        1.37571
