21
nuc31_conf-96.log	Energy: -398736.3838350
S          2.39459        0.83379       -0.29196
C          1.90082       -0.76989        0.46581
C          0.40549       -0.91772        0.73780
C         -0.45748       -1.03279       -0.52201
C         -1.97325       -0.97755       -0.25881
C         -2.59565        0.42240       -0.36401
C         -2.02319        1.47757        0.58393
H          1.93362        0.58507       -1.53812
H          2.28203       -1.59124       -0.16153
H          2.46720       -0.79913        1.40902
H          0.25570       -1.82324        1.35436
H          0.07461       -0.06796        1.35366
H         -0.19022       -0.22684       -1.22764
H         -0.19860       -1.97728       -1.03190
H         -2.49119       -1.63119       -0.98032
H         -2.18794       -1.40515        0.73801
H         -2.48366        0.77758       -1.40482
H         -3.68308        0.33391       -0.19399
H         -0.96108        1.68351        0.37755
H         -2.56714        2.43044        0.48402
H         -2.10415        1.15881        1.63685
