21
nuc31_conf-130.log	Energy: -398736.5536616
S         -2.57844        0.10531       -0.49752
C         -1.15771        0.86979        0.38534
C         -0.35712       -0.08027        1.27627
C          0.29314       -1.26658        0.55493
C          1.22807       -0.95686       -0.62403
C          2.53662       -0.21875       -0.29373
C          2.43634        1.30395       -0.17263
H         -1.85745       -0.59331       -1.40334
H         -0.51740        1.37519       -0.35177
H         -1.61931        1.66112        0.99527
H          0.41072        0.51453        1.80078
H         -1.02624       -0.47439        2.05923
H          0.85084       -1.86155        1.29926
H         -0.51435       -1.92492        0.19155
H          1.48807       -1.92363       -1.08745
H          0.68417       -0.39758       -1.40783
H          2.96300       -0.63980        0.63512
H          3.27019       -0.44828       -1.08567
H          3.43056        1.75347       -0.01995
H          2.01309        1.74563       -1.09039
H          1.80302        1.62091        0.66856
