21
nuc31_conf-128.log	Energy: -398736.5537012
S          2.57845        0.10538       -0.49749
C          1.15770        0.86974        0.38543
C          0.35711       -0.08044        1.27624
C         -0.29313       -1.26667        0.55476
C         -1.22812       -0.95681       -0.62411
C         -2.53662       -0.21870       -0.29364
C         -2.43632        1.30400       -0.17259
H          1.85748       -0.59313       -1.40342
H          1.61928        1.66101        0.99545
H          0.51739        1.37521       -0.35164
H          1.02622       -0.47463        2.05917
H         -0.41075        0.51430        1.80081
H          0.51439       -1.92493        0.19125
H         -0.85076       -1.86177        1.29903
H         -0.68425       -0.39746       -1.40789
H         -1.48816       -1.92353       -1.08762
H         -3.27031       -0.44825       -1.08547
H         -2.96287       -0.63973        0.63528
H         -3.43050        1.75353       -0.01969
H         -1.80279        1.62098        0.66844
H         -2.01328        1.74567       -1.09045
