21
nuc31_conf-174.log	Energy: -398733.3170412
S          1.97065       -0.98362       -0.29459
C          1.49439        0.36476        0.86958
C          0.87254        1.54733        0.11435
C         -0.64472        1.52052       -0.12016
C         -1.21131        0.38330       -0.99052
C         -1.60165       -0.90693       -0.25381
C         -2.76789       -0.74538        0.72185
H          2.41122       -1.85580        0.64145
H          0.79308       -0.02598        1.62347
H          2.40521        0.69151        1.39171
H          1.10115        2.45833        0.69348
H          1.39800        1.67332       -0.84952
H         -1.15666        1.53051        0.85819
H         -0.90523        2.48359       -0.59064
H         -2.11092        0.75906       -1.50990
H         -0.48568        0.14050       -1.78566
H         -1.87148       -1.66359       -1.01086
H         -0.72336       -1.32075        0.26591
H         -3.66783       -0.36154        0.21181
H         -3.03445       -1.70791        1.18690
H         -2.53158       -0.04486        1.53937
