21
nuc31_conf-131.log	Energy: -398734.7188346
S         -1.31186       -1.51444       -0.16315
C         -1.79103        0.09004        0.60333
C         -1.38840        1.35621       -0.15962
C          0.05968        1.84850       -0.02298
C          1.17193        0.91102       -0.52648
C          1.76681       -0.00699        0.54550
C          2.76817       -1.01074       -0.01957
H         -2.09058       -1.38769       -1.26274
H         -2.87972        0.06902        0.75953
H         -1.33025        0.06851        1.60374
H         -1.63274        1.22017       -1.22825
H         -2.04956        2.16751        0.19517
H          0.11915        2.80364       -0.57136
H          0.25366        2.10605        1.03480
H          0.78938        0.29751       -1.35966
H          1.99286        1.51847       -0.94662
H          2.25149        0.61574        1.31952
H          0.96134       -0.55602        1.05929
H          3.58970       -0.50172       -0.55158
H          3.21650       -1.63007        0.77355
H          2.27567       -1.68834       -0.73602
