21
nuc31_conf-82.log	Energy: -398735.9713109
S         -1.78667       -1.14022       -0.12098
C         -1.52164        0.46468        0.73450
C         -0.88464        1.56488       -0.11549
C          0.46090        1.25661       -0.78321
C          1.64922        1.00994        0.16230
C          1.82628       -0.41484        0.71228
C          2.07895       -1.47491       -0.35976
H         -2.59258       -0.66043       -1.09740
H         -2.48377        0.80961        1.14244
H         -0.88884        0.20689        1.59610
H         -1.60636        1.85551       -0.89982
H         -0.77175        2.45452        0.53215
H          0.33888        0.40274       -1.46884
H          0.70366        2.12160       -1.42288
H          2.57727        1.27128       -0.37676
H          1.58890        1.72109        1.00655
H          2.67745       -0.40161        1.41552
H          0.95186       -0.71193        1.31361
H          1.20266       -1.60478       -1.01267
H          2.94179       -1.20435       -0.99197
H          2.29317       -2.45473        0.09584
