21
nuc31_conf-141.log	Energy: -398734.4680285
S          2.30621       -0.85737       -0.32420
C          1.87153        0.91865       -0.11611
C          0.38388        1.27084       -0.13259
C         -0.43639        0.70190        1.04189
C         -1.11328       -0.66160        0.79554
C         -2.53552       -0.58245        0.22452
C         -2.65991        0.07145       -1.15242
H          1.87599       -1.27877        0.88645
H          2.35076        1.28587        0.80523
H          2.38434        1.40944       -0.95776
H          0.32465        2.37387       -0.11535
H         -0.04945        0.95536       -1.09372
H          0.22570        0.63226        1.92342
H         -1.21477        1.43058        1.32790
H         -0.48207       -1.27061        0.12803
H         -1.16538       -1.21161        1.75074
H         -2.94461       -1.60662        0.17162
H         -3.17820       -0.03979        0.94213
H         -2.01979       -0.43300       -1.89530
H         -3.69764        0.02405       -1.51949
H         -2.37064        1.13415       -1.13165
