21
nuc31_conf-46.log	Energy: -398738.0478018
S          3.02842       -0.22817       -0.13168
C          1.67477        0.98255        0.16219
C          0.35390        0.38702        0.64809
C         -0.33584       -0.52656       -0.36463
C         -1.65090       -1.14039        0.13174
C         -2.75227       -0.14178        0.51343
C         -3.17247        0.79463       -0.61981
H          2.55169       -0.73919       -1.28891
H          2.08937        1.66271        0.92169
H          1.52955        1.57800       -0.75309
H          0.53143       -0.16920        1.58503
H         -0.31171        1.23007        0.90565
H         -0.50972        0.03440       -1.30089
H          0.35284       -1.34724       -0.62537
H         -2.03961       -1.81532       -0.65169
H         -1.43524       -1.78217        1.00446
H         -3.63206       -0.71198        0.85825
H         -2.42996        0.45636        1.38374
H         -3.48572        0.22574       -1.51159
H         -4.01732        1.43392       -0.31850
H         -2.35133        1.46176       -0.92789
