21
nuc31_conf-125.log	Energy: -398736.5931295
S          2.34809        0.62895       -0.26147
C          1.23502       -0.26678        0.89563
C          0.50278       -1.47133        0.29639
C         -0.55466       -1.17134       -0.77752
C         -1.96007       -0.81826       -0.26759
C         -2.11336        0.45746        0.57173
C         -1.68523        1.74276       -0.13685
H          1.39027        1.13092       -1.07232
H          1.91675       -0.60439        1.69137
H          0.54723        0.45546        1.35513
H          1.26686       -2.14212       -0.12896
H          0.02738       -2.02931        1.12483
H         -0.18018       -0.38434       -1.45419
H         -0.65585       -2.06587       -1.41405
H         -2.62918       -0.73796       -1.14341
H         -2.34019       -1.67198        0.32171
H         -3.17446        0.54593        0.86255
H         -1.56027        0.35349        1.52116
H         -0.60452        1.76217       -0.34619
H         -2.20980        1.85935       -1.10002
H         -1.91039        2.63037        0.47512
