21
nuc31_conf-10.log	Energy: -398738.5201094
S         -3.50448       -0.07324       -0.18966
C         -1.81871       -0.54158        0.36442
C         -0.70995        0.38292       -0.12870
C          0.68504       -0.08142        0.29645
C          1.80116        0.84635       -0.18946
C          3.20951        0.44596        0.26537
C          3.69666       -0.89391       -0.28847
H         -3.55005        1.11819        0.45116
H         -1.80700       -0.62518        1.46278
H         -1.67734       -1.56024       -0.03157
H         -0.76547        0.45589       -1.22813
H         -0.89159        1.40384        0.25301
H          0.72903       -0.15695        1.39893
H          0.85338       -1.10431       -0.08332
H          1.77479        0.89624       -1.29386
H          1.58828        1.87122        0.16313
H          3.91571        1.23863       -0.03648
H          3.23916        0.42086        1.37003
H          4.73344       -1.10085        0.02061
H          3.07711       -1.73470        0.06185
H          3.66994       -0.90070       -1.39131
