21
nuc31_conf-145.log	Energy: -398733.6837396
S         -1.90602       -1.01962       -0.38612
C         -1.82556        0.71253        0.23341
C         -0.50460        1.17456        0.85701
C          0.61731        1.56885       -0.11772
C          1.28367        0.47916       -0.97504
C          2.35385       -0.37754       -0.28313
C          1.86455       -1.31854        0.82055
H         -1.71218       -1.61769        0.81202
H         -2.07322        1.32524       -0.64879
H         -2.65060        0.84505        0.94907
H         -0.74315        2.07182        1.45636
H         -0.16055        0.42066        1.58152
H          0.20071        2.33533       -0.79625
H          1.40408        2.08772        0.45992
H          0.51574       -0.17765       -1.41278
H          1.77236        0.98703       -1.82448
H          2.85095       -0.98291       -1.06131
H          3.13936        0.28635        0.12347
H          1.01462       -1.92730        0.47381
H          2.66760       -2.00308        1.13789
H          1.53537       -0.77072        1.71699
