21
nuc31_conf-94.log	Energy: -398737.0694970
S          2.93818       -0.32264       -0.12881
C          1.67963        0.99800        0.14716
C          0.35576        0.39124        0.60965
C         -0.33931       -0.48102       -0.43885
C         -1.63131       -1.14385        0.05385
C         -2.73416       -0.18634        0.52649
C         -3.19856        0.81076       -0.53549
H          3.94191        0.50090       -0.50727
H          2.06305        1.69414        0.90768
H          1.53462        1.55845       -0.79014
H          0.52599       -0.19586        1.53016
H         -0.30466        1.22654        0.89885
H         -0.54497        0.13169       -1.33459
H          0.35611       -1.26775       -0.77425
H         -2.03273       -1.77460       -0.75932
H         -1.38418       -1.83546        0.87904
H         -3.59646       -0.78867        0.86071
H         -2.39465        0.36271        1.42239
H         -3.53185        0.29215       -1.45030
H         -4.04107        1.42000       -0.17173
H         -2.39436        1.50532       -0.82715
