21
nuc31_conf-63.log	Energy: -398735.8039723
S         -2.36685       -0.98988        0.10136
C         -2.10912        0.82356        0.26267
C         -0.82768        1.40060       -0.34064
C          0.49528        0.87020        0.23931
C          1.09191       -0.32759       -0.50843
C          2.37017       -0.89181        0.12155
C          3.55684        0.07341        0.13749
H         -2.38822       -1.02398       -1.25175
H         -2.99170        1.33797       -0.14757
H         -2.12226        0.98940        1.35208
H         -0.84006        1.25767       -1.43625
H         -0.88271        2.49277       -0.18494
H          1.22934        1.69251        0.24244
H          0.34502        0.59892        1.30063
H          0.33517       -1.12488       -0.56014
H          1.30189       -0.02685       -1.55247
H          2.14748       -1.21947        1.15345
H          2.65744       -1.80562       -0.42690
H          3.35794        0.96275        0.75654
H          4.46052       -0.40981        0.54182
H          3.79519        0.42640       -0.88036
