21
nuc31_conf-106.log	Energy: -398736.5823733
S          2.89647       -0.42442        0.10570
C          1.13120       -0.23839       -0.36406
C          0.54189        1.13422       -0.03975
C         -0.90154        1.35283       -0.52907
C         -2.01571        0.89192        0.42256
C         -2.10625       -0.60937        0.72589
C         -2.34935       -1.48839       -0.50091
H          2.71118       -0.30448        1.44120
H          1.12238       -0.40962       -1.45248
H          0.55732       -1.05721        0.08963
H          0.59184        1.30505        1.05108
H          1.20295        1.89152       -0.49120
H         -1.04368        2.43330       -0.69766
H         -1.02770        0.88482       -1.52166
H         -1.90423        1.43802        1.37640
H         -2.98338        1.21913        0.00089
H         -1.19386       -0.94319        1.25017
H         -2.92766       -0.76361        1.44683
H         -3.25976       -1.17452       -1.03868
H         -1.51332       -1.44029       -1.21617
H         -2.47694       -2.54506       -0.21743
