21
nuc31_conf-116.log	Energy: -398736.3778172
S          3.03086       -0.23116       -0.04244
C          1.65010        0.98370       -0.10120
C          0.33583        0.51621        0.52194
C         -0.31304       -0.67283       -0.19130
C         -1.67775       -1.10195        0.37645
C         -2.90697       -0.43834       -0.26014
C         -2.99625        1.08171       -0.11951
H          2.57113       -1.05787       -1.00829
H          2.04240        1.85534        0.44443
H          1.50456        1.30104       -1.14603
H          0.51371        0.24963        1.57804
H         -0.35282        1.37728        0.53075
H         -0.41664       -0.44736       -1.26989
H          0.38590       -1.52259       -0.12636
H         -1.78729       -2.19212        0.25086
H         -1.68741       -0.92675        1.46809
H         -2.93612       -0.70374       -1.33278
H         -3.81088       -0.89146        0.18339
H         -2.93409        1.39265        0.93683
H         -2.18825        1.59388       -0.66519
H         -3.94961        1.45952       -0.52218
