21
nuc31_conf-58.log	Energy: -398737.4848719
S          2.55373        0.96066       -0.13576
C          2.14539       -0.77926        0.32278
C          0.80038       -1.18813       -0.27504
C         -0.40211       -0.42024        0.27716
C         -1.72989       -0.86725       -0.33690
C         -2.96494       -0.16019        0.23342
C         -3.01229        1.34455       -0.03676
H          3.74949        1.00749        0.49429
H          2.94244       -1.43766       -0.05300
H          2.11696       -0.86487        1.42069
H          0.84195       -1.07414       -1.37301
H          0.66230       -2.26781       -0.08580
H         -0.44261       -0.55044        1.37468
H         -0.25197        0.65850        0.10887
H         -1.69344       -0.70981       -1.43107
H         -1.84182       -1.95706       -0.19332
H         -3.86863       -0.63161       -0.19016
H         -3.01345       -0.34060        1.32288
H         -2.95717        1.55519       -1.11823
H         -3.94621        1.78921        0.34197
H         -2.17683        1.87621        0.44536
