21
nuc31_conf-27.log	Energy: -398738.2421378
S          3.12843       -0.52187       -0.15668
C          1.72088        0.40183        0.57384
C          0.41825        0.29715       -0.21325
C         -0.74645        1.01021        0.47903
C         -2.05101        1.01547       -0.32815
C         -2.61436       -0.36668       -0.68600
C         -2.91136       -1.25641        0.52133
H          3.19638        0.18863       -1.30685
H          1.60136       -0.03759        1.57742
H          2.01330        1.45348        0.72226
H          0.56607        0.72551       -1.22140
H          0.18541       -0.76886       -0.36722
H         -0.91773        0.54742        1.46713
H         -0.45737        2.05553        0.68746
H         -2.81406        1.57477        0.24225
H         -1.89087        1.58580       -1.26060
H         -3.54082       -0.22236       -1.26811
H         -1.91789       -0.88939       -1.36456
H         -3.59294       -0.75459        1.22893
H         -3.38632       -2.20145        0.21414
H         -1.99508       -1.51653        1.07523
