21
nuc31_conf-52.log	Energy: -398737.8478064
S         -3.20673       -0.67900       -0.09960
C         -1.95369        0.62434        0.24301
C         -0.57070        0.12521       -0.16510
C          0.52596        1.16103        0.09876
C          1.92341        0.73297       -0.36174
C          2.50456       -0.47213        0.38286
C          3.92665       -0.81699       -0.05693
H         -4.28088        0.00942        0.34999
H         -2.21263        1.53579       -0.31836
H         -1.96826        0.87008        1.31645
H         -0.35333       -0.80843        0.38000
H         -0.57956       -0.13721       -1.23803
H          0.25453        2.10341       -0.40895
H          0.55319        1.39519        1.17896
H          1.89864        0.51340       -1.44531
H          2.61299        1.58779       -0.24429
H          2.49084       -0.26522        1.46866
H          1.85522       -1.35212        0.23577
H          3.96324       -1.05701       -1.13270
H          4.61396        0.02836        0.11427
H          4.32257       -1.68600        0.49192
