21
nuc31_conf-150.log	Energy: -398735.4158841
S          2.94254       -0.32724       -0.01872
C          1.65692        0.99255       -0.11998
C          0.33977        0.51179        0.48643
C         -0.31487       -0.65411       -0.26323
C         -1.66312       -1.11631        0.31735
C         -2.91115       -0.43137       -0.25717
C         -3.00448        1.07994       -0.04326
H          3.94219        0.39261       -0.57675
H          2.02051        1.87774        0.42247
H          1.51094        1.27225       -1.17559
H          0.51031        0.21958        1.53786
H         -0.34365        1.37503        0.51912
H         -0.44365       -0.37960       -1.32682
H          0.38949       -1.50155       -0.26397
H         -1.77044       -2.19998        0.14340
H         -1.64782       -0.99285        1.41615
H         -2.96538       -0.64638       -1.33998
H         -3.80163       -0.91009        0.18672
H         -2.91482        1.34188        1.02440
H         -2.21459        1.62198       -0.58664
H         -3.97042        1.47023       -0.40164
