21
nuc31_conf-143.log	Energy: -398735.4420688
S         -1.94336       -1.02988       -0.02393
C         -1.85526        0.80495       -0.21317
C         -0.45597        1.29407       -0.59854
C          0.58924        1.34375        0.52511
C          1.08159        0.00142        1.08615
C          1.68788       -0.96166        0.05694
C          2.88078       -0.39534       -0.71391
H         -3.29025       -1.10048        0.08350
H         -2.56929        1.08822       -1.00012
H         -2.17818        1.28244        0.72597
H         -0.08473        0.70187       -1.45243
H         -0.58048        2.32130       -0.98279
H          1.45522        1.91560        0.15003
H          0.17889        1.94351        1.35710
H          1.84001        0.21779        1.86028
H          0.25343       -0.50884        1.60357
H          1.99870       -1.87881        0.58613
H          0.90902       -1.28684       -0.65399
H          3.32655       -1.15508       -1.37537
H          2.59441        0.46005       -1.34691
H          3.67085       -0.04571       -0.02758
