21
nuc31_conf-22.log	Energy: -398737.8480229
S          2.99952       -0.24099       -0.22563
C          1.68727        0.99062        0.15344
C          0.34981        0.40323        0.60337
C         -0.34323       -0.46127       -0.44997
C         -1.62535       -1.14483        0.03916
C         -2.73618       -0.20700        0.53207
C         -3.22042        0.79750       -0.51392
H          3.10913       -0.73340        1.03072
H          2.07675        1.70061        0.89828
H          1.56613        1.54928       -0.78886
H          0.50372       -0.18652        1.52576
H         -0.30205        1.24758        0.89027
H         -0.56006        0.16010       -1.33739
H          0.36645       -1.23226       -0.79084
H         -2.02443       -1.76829       -0.78084
H         -1.36635       -1.84603        0.85279
H         -3.58900       -0.82330        0.86537
H         -2.39566        0.33529        1.43178
H         -3.55612        0.28606       -1.43189
H         -4.06618        1.39341       -0.13585
H         -2.42608        1.50385       -0.80420
