21
nuc31_conf-72.log	Energy: -398736.5705373
S         -1.61742       -1.44846       -0.02133
C         -2.01218        0.34786       -0.11392
C         -1.04965        1.31555        0.58340
C          0.16530        1.78079       -0.23209
C          1.19356        0.72047       -0.64467
C          1.82084       -0.05769        0.51334
C          2.88495       -1.05262        0.05329
H         -0.60978       -1.46497       -0.92011
H         -2.16560        0.62661       -1.16876
H         -3.00022        0.39847        0.36839
H         -1.63137        2.21823        0.84258
H         -0.73205        0.87730        1.54363
H         -0.19979        2.29080       -1.14179
H          0.68504        2.55776        0.35662
H          0.73901        0.01033       -1.35881
H          1.99542        1.22358       -1.21440
H          2.26185        0.65777        1.23124
H          1.03263       -0.59984        1.06081
H          2.45455       -1.80352       -0.63080
H          3.70385       -0.54794       -0.48639
H          3.32811       -1.59546        0.90299
