21
nuc31_conf-138.log	Energy: -398736.0717482
S          2.99316       -0.57408       -0.12851
C          1.22046       -0.28577        0.27700
C          0.83299        1.12839       -0.14971
C         -0.58399        1.56570        0.24672
C         -1.73872        0.75739       -0.36987
C         -2.19459       -0.46196        0.43918
C         -3.34862       -1.21667       -0.21860
H          3.04362       -1.86132        0.28437
H          0.61268       -1.03501       -0.24969
H          1.06642       -0.41647        1.35969
H          1.55585        1.83702        0.29063
H          0.94856        1.21309       -1.24467
H         -0.67836        1.55800        1.34808
H         -0.68917        2.62176       -0.05234
H         -2.61190        1.42109       -0.49697
H         -1.46001        0.44010       -1.39217
H         -1.35038       -1.15261        0.59820
H         -2.49788       -0.12551        1.44698
H         -3.67118       -2.07681        0.38913
H         -4.22405       -0.56125       -0.36146
H         -3.05994       -1.59917       -1.21193
