21
nuc31_conf-113.log	Energy: -398736.1934725
S         -1.97801       -1.27541       -0.08424
C         -2.16069        0.50681        0.36353
C         -1.17815        1.40763       -0.39075
C          0.27533        1.40807        0.09953
C          1.08520        0.13897       -0.17632
C          2.55610        0.26748        0.22452
C          3.36653       -0.99988       -0.04199
H         -3.10921       -1.69570        0.52790
H         -3.18980        0.80356        0.11423
H         -2.02742        0.62572        1.45090
H         -1.21463        1.16314       -1.46731
H         -1.56691        2.43682       -0.30128
H          0.79123        2.26139       -0.37611
H          0.28811        1.62059        1.18473
H          0.63857       -0.71711        0.35577
H          1.01989       -0.10846       -1.25210
H          3.00903        1.11892       -0.31570
H          2.61698        0.52726        1.29715
H          2.95614       -1.85878        0.51454
H          3.35005       -1.26519       -1.11228
H          4.42022       -0.88013        0.25626
