21
nuc31_conf-66.log	Energy: -398736.2468434
S         -2.32550        0.80200       -0.40035
C         -1.90027       -0.79341        0.41372
C         -0.41650       -0.96863        0.73012
C          0.47690       -1.08368       -0.50941
C          1.98402       -0.97025       -0.21853
C          2.56127        0.44622       -0.35529
C          1.92644        1.51068        0.54102
H         -2.01420        1.59339        0.65251
H         -2.51762       -0.89970        1.31799
H         -2.24201       -1.56019       -0.30045
H         -0.08707       -0.13237        1.36732
H         -0.29979       -1.87862        1.34703
H          0.26090       -2.05046       -0.99642
H          0.18403       -0.30783       -1.23739
H          2.19452       -1.36061        0.79463
H          2.53841       -1.62679       -0.90966
H          3.64625        0.40333       -0.15451
H          2.46301        0.76353       -1.40928
H          0.86434        1.66743        0.29564
H          1.98953        1.23132        1.60641
H          2.43658        2.47993        0.42204
