21
nuc31_conf-60.log	Energy: -398736.8122112
S          2.89749       -0.75987       -0.15095
C          1.37504       -0.01635        0.55284
C          0.71347        1.02918       -0.34504
C         -0.61017        1.59029        0.20815
C         -1.87967        0.84062       -0.21563
C         -1.98023       -0.62317        0.22153
C         -3.32672       -1.25504       -0.12958
H          3.61387        0.38701       -0.21571
H          0.71344       -0.87736        0.72318
H          1.60156        0.40844        1.54358
H          1.43109        1.85586       -0.48402
H          0.55517        0.59820       -1.34849
H         -0.55691        1.63349        1.31183
H         -0.71338        2.63691       -0.12316
H         -2.75422        1.38632        0.18240
H         -1.97291        0.88999       -1.31639
H         -1.17416       -1.20993       -0.25121
H         -1.81059       -0.69210        1.31157
H         -3.50995       -1.22126       -1.21652
H         -3.37529       -2.30971        0.18413
H         -4.15792       -0.72103        0.36035
