21
nuc31_conf-157.log	Energy: -398735.3566447
S         -1.76259       -1.09637       -0.25369
C         -1.54287        0.45350        0.72034
C         -0.92842        1.55204       -0.14688
C          0.44520        1.26490       -0.77021
C          1.59787        1.02207        0.21995
C          1.78643       -0.41651        0.72906
C          2.16188       -1.42007       -0.36096
H         -2.31051       -1.82610        0.74440
H         -2.52702        0.78105        1.08670
H         -0.90825        0.24455        1.59385
H         -1.63898        1.79895       -0.95460
H         -0.85284        2.45735        0.48219
H          0.36661        0.41722       -1.47114
H          0.69851        2.13755       -1.39500
H          2.54209        1.32794       -0.26470
H          1.47610        1.70208        1.08297
H          2.57944       -0.40350        1.49730
H          0.87634       -0.77145        1.23779
H          3.06550       -1.09951       -0.90699
H          2.36610       -2.41334        0.06942
H          1.34789       -1.54639       -1.09091
