21
nuc31_conf-160.log	Energy: -398735.8678816
S          2.86654       -0.33549        0.21367
C          1.12474       -0.25393       -0.37770
C          0.54745        1.12352       -0.05218
C         -0.89567        1.34752       -0.53756
C         -2.00835        0.89674        0.42072
C         -2.10486       -0.60223        0.73335
C         -2.35136       -1.48785       -0.48808
H          3.11155       -1.60348       -0.18883
H          1.10239       -0.42273       -1.46568
H          0.54932       -1.05516        0.10371
H          0.60460        1.29683        1.03727
H          1.20472        1.87925       -0.51449
H         -1.03307        2.42794       -0.70987
H         -1.02744        0.87600       -1.52758
H         -1.89116        1.44769        1.37090
H         -2.97549        1.22632       -0.00043
H         -1.19462       -0.93576        1.26107
H         -2.92770       -0.74830        1.45435
H         -1.51611       -1.44623       -1.20483
H         -2.48202       -2.54247       -0.19826
H         -3.26125       -1.17477       -1.02723
