21
nuc31_conf-104.log	Energy: -398735.9785718
S          2.37616       -0.99750        0.00286
C          2.11353        0.80207       -0.27747
C          0.85031        1.42160        0.32192
C         -0.48126        0.88221       -0.23242
C         -1.10608       -0.24084        0.60494
C         -2.33845       -0.89426       -0.02934
C         -3.52427        0.04906       -0.23852
H          1.41709       -1.43928       -0.84180
H          3.00797        1.26726        0.16497
H          2.16220        0.99028       -1.36159
H          0.87134        1.30627        1.41902
H          0.91611        2.50666        0.12663
H         -1.19982        1.71419       -0.30893
H         -0.33157        0.52973       -1.27099
H         -0.34532       -1.01228        0.80072
H         -1.37817        0.16839        1.59575
H         -2.05074       -1.34224       -0.99863
H         -2.65635       -1.73779        0.60756
H         -4.39927       -0.48946       -0.63578
H         -3.82693        0.52186        0.71125
H         -3.28778        0.85744       -0.94862
