21
nuc31_conf-70.log	Energy: -398736.2726322
S         -2.15909        0.77269       -0.26307
C         -1.26691       -0.33217        0.90312
C         -0.53299       -1.51103        0.25595
C          0.54722       -1.17941       -0.78398
C          1.93661       -0.82375       -0.23316
C          2.06521        0.46965        0.58320
C          1.65589        1.73533       -0.17047
H         -2.97808       -0.17467       -0.77848
H         -0.57502        0.34280        1.42545
H         -1.98203       -0.69814        1.65523
H         -0.09022       -2.11816        1.06783
H         -1.29466       -2.15699       -0.21506
H          0.67124       -2.06282       -1.43235
H          0.17358       -0.37835       -1.44303
H          2.29832       -1.66767        0.38190
H          2.63191       -0.75849       -1.08962
H          1.48438        0.38608        1.51818
H          3.11661        0.56515        0.90604
H          2.23875        1.84552       -1.10054
H          0.59171        1.72423       -0.45314
H          1.82878        2.63667        0.43883
