21
nuc31_conf-88.log	Energy: -398736.0707059
S         -2.10178       -1.21564        0.01283
C         -2.12874        0.59592       -0.31081
C         -0.78164        1.27878       -0.54917
C          0.18054        1.28978        0.65387
C          1.18556        0.12954        0.71032
C          2.29043        0.21029       -0.34610
C          3.26902       -0.96093       -0.27765
H         -1.61954       -1.15394        1.27429
H         -2.76036        0.68886       -1.20779
H         -2.67429        1.08386        0.51227
H         -0.29344        0.82121       -1.42532
H         -1.00969        2.31988       -0.83903
H          0.74940        2.23579        0.64979
H         -0.41359        1.31067        1.58544
H          1.65505        0.11280        1.71029
H          0.65449       -0.82966        0.60045
H          1.84012        0.24880       -1.35350
H          2.83892        1.16239       -0.22503
H          3.76225       -1.01203        0.70755
H          2.75021       -1.92101       -0.43553
H          4.05801       -0.87774       -1.04187
