21
nuc31_conf-15.log	Energy: -398737.9666988
S          3.33263       -0.29316       -0.08838
C          1.50596       -0.46515       -0.02562
C          0.77498        0.78219        0.46691
C         -0.73701        0.58762        0.63780
C         -1.49764        0.32693       -0.66642
C         -3.02220        0.27685       -0.51022
C         -3.53088       -0.88028        0.35097
H          3.36112        0.68021       -1.02857
H          1.14577       -0.78738       -1.01363
H          1.33641       -1.30745        0.66492
H          1.22124        1.09014        1.42646
H          0.96255        1.61208       -0.23857
H         -0.91323       -0.23836        1.34920
H         -1.15473        1.49144        1.11613
H         -1.23694        1.11962       -1.39074
H         -1.15514       -0.62093       -1.11898
H         -3.37357        1.23480       -0.08521
H         -3.47767        0.20700       -1.51313
H         -3.18639       -1.85076       -0.04485
H         -3.17900       -0.80471        1.39204
H         -4.63173       -0.90414        0.37849
