21
nuc31_conf-129.log	Energy: -398736.5537125
S         -2.57845        0.10538       -0.49749
C         -1.15770        0.86974        0.38544
C         -0.35711       -0.08044        1.27624
C          0.29313       -1.26667        0.55476
C          1.22811       -0.95681       -0.62411
C          2.53662       -0.21871       -0.29364
C          2.43633        1.30400       -0.17259
H         -1.85749       -0.59313       -1.40343
H         -0.51739        1.37520       -0.35164
H         -1.61928        1.66101        0.99546
H          0.41075        0.51429        1.80082
H         -1.02623       -0.47464        2.05916
H          0.85077       -1.86177        1.29903
H         -0.51439       -1.92493        0.19125
H          1.48815       -1.92353       -1.08762
H          0.68425       -0.39745       -1.40789
H          2.96287       -0.63974        0.63528
H          3.27031       -0.44825       -1.08547
H          2.01327        1.74567       -1.09044
H          1.80281        1.62098        0.66846
H          3.43051        1.75352       -0.01970
