21
nuc31_conf-11.log	Energy: -398738.5267108
S          3.51653       -0.00777        0.06537
C          1.81703        0.57045       -0.31600
C          0.71048       -0.38886        0.11120
C         -0.68493        0.09675       -0.28803
C         -1.80074       -0.85345        0.15322
C         -3.20840       -0.43623       -0.28829
C         -3.69939        0.87835        0.32011
H          3.37678       -0.01443        1.41173
H          1.66642        1.57041        0.12096
H          1.81495        0.70017       -1.41035
H          0.90677       -1.38226       -0.32671
H          0.75229       -0.52624        1.20682
H         -0.85402        1.10064        0.13924
H         -0.72837        0.22392       -1.38575
H         -1.58435       -1.86135       -0.24302
H         -1.77825       -0.95147        1.25463
H         -3.23484       -0.36453       -1.39094
H         -3.91419       -1.24202       -0.02240
H         -3.08011        1.73407        0.00747
H         -4.73554        1.09667        0.01682
H         -3.67620        0.83869        1.42237
