21
nuc31_conf-140.log	Energy: -398735.8280266
S          2.01437       -1.04614       -0.38635
C          1.44266        0.10365        0.93667
C          1.04178        1.45333        0.34239
C         -0.13127        1.45338       -0.64863
C         -1.46904        0.93805       -0.08829
C         -1.73304       -0.55777       -0.29551
C         -3.04557       -1.02272        0.33182
H          2.32691       -2.07526        0.43356
H          0.59719       -0.35249        1.47358
H          2.26314        0.24661        1.65511
H          0.78981        2.11751        1.18872
H          1.92529        1.90020       -0.14537
H         -0.25884        2.49286       -0.99330
H          0.13810        0.87235       -1.54787
H         -1.53259        1.17876        0.99000
H         -2.29710        1.49632       -0.55931
H         -1.74421       -0.76618       -1.38018
H         -0.89550       -1.15449        0.09918
H         -3.90506       -0.46337       -0.07486
H         -3.22733       -2.09343        0.14743
H         -3.04291       -0.86862        1.42424
