21
nuc31_conf-152.log	Energy: -398733.8579575
S         -1.91135       -1.12355        0.15312
C         -1.56320        0.39288       -0.83115
C         -0.91186        1.55665       -0.07590
C          0.60897        1.51350        0.13026
C          1.17413        0.35889        0.98045
C          1.61846       -0.88453        0.19647
C          2.86660       -0.66780       -0.66003
H         -2.84863       -0.56346        0.95273
H         -0.91961        0.04832       -1.65622
H         -2.51066        0.71503       -1.28776
H         -1.14199        2.47670       -0.64306
H         -1.41569        1.67492        0.89984
H          1.10178        1.52373       -0.85835
H          0.88933        2.47113        0.60014
H          2.04733        0.72950        1.54618
H          0.42459        0.06338        1.73214
H          1.81172       -1.70012        0.91420
H          0.79158       -1.24609       -0.43578
H          3.15366       -1.58959       -1.19065
H          2.71411        0.11332       -1.42277
H          3.72547       -0.35754       -0.04117
