21
nuc31_conf-36.log	Energy: -398738.1056808
S          2.44865        0.85156        0.09914
C          1.90075       -0.84311       -0.36594
C          0.39537       -0.99567       -0.57713
C         -0.43476       -0.83181        0.69577
C         -1.95004       -0.91807        0.47776
C         -2.53345        0.13854       -0.47203
C         -2.21478        1.58159       -0.07775
H          2.02328        0.82361        1.38191
H          2.44272       -1.04744       -1.30175
H          2.27794       -1.55567        0.38454
H          0.07667       -0.26312       -1.33626
H          0.20606       -1.99613       -1.00908
H         -0.13033       -1.60345        1.42560
H         -0.19102        0.13759        1.16082
H         -2.20804       -1.92274        0.09744
H         -2.44869       -0.82762        1.45930
H         -2.17690       -0.04577       -1.50049
H         -3.62787        0.00175       -0.51151
H         -1.13616        1.79657       -0.14393
H         -2.73305        2.29744       -0.73515
H         -2.53156        1.79114        0.95821
