21
nuc31_conf-55.log	Energy: -398737.4760635
S         -2.71837       -0.83400        0.14421
C         -2.08712        0.79591       -0.44659
C         -0.56734        0.75625       -0.59660
C          0.19269        0.57944        0.72116
C          1.71744        0.61338        0.57704
C          2.31280       -0.55582       -0.21274
C          3.83930       -0.52357       -0.26993
H         -4.03012       -0.50548        0.12360
H         -2.55685        1.02368       -1.41479
H         -2.38084        1.57812        0.27150
H         -0.30117       -0.04682       -1.30440
H         -0.25059        1.70224       -1.07194
H         -0.12334        1.37645        1.41740
H         -0.10878       -0.37014        1.19639
H          2.02114        1.56529        0.10202
H          2.16887        0.62414        1.58502
H          1.97690       -1.50479        0.24333
H          1.91061       -0.55785       -1.24049
H          4.20062        0.40185       -0.74901
H          4.27761       -0.56194        0.74138
H          4.24317       -1.37421       -0.84142
