21
nuc31_conf-69.log	Energy: -398736.6435907
S          3.00677       -0.65808        0.02198
C          1.23618       -0.27043       -0.27684
C          0.82543        1.13276        0.16379
C         -0.59167        1.56631       -0.23994
C         -1.75130        0.75773        0.36701
C         -2.19198       -0.47064       -0.43670
C         -3.35590       -1.22016        0.20950
H          2.95668       -0.56112        1.37119
H          1.11163       -0.38914       -1.36528
H          0.62245       -1.04689        0.20119
H          0.92512        1.20276        1.26236
H          1.55330        1.84882       -0.25215
H         -0.70099        2.62204        0.05928
H         -0.67857        1.56028       -1.34211
H         -1.48587        0.45059        1.39611
H         -2.62863        1.41921        0.47638
H         -2.47887       -0.14514       -1.45286
H         -1.34437       -1.16159       -0.57435
H         -3.08368       -1.59149        1.21171
H         -4.23484       -0.56496        0.33018
H         -3.66626       -2.08754       -0.39421
