21
nuc31_conf-164.log	Energy: -398735.4429598
S         -2.47327        0.02387       -0.51773
C         -1.14628        0.86747        0.44635
C         -0.36390       -0.14284        1.28479
C          0.28558       -1.29284        0.50119
C          1.19775       -0.92328       -0.67717
C          2.51492       -0.20675       -0.33616
C          2.42246        1.30415       -0.10751
H         -2.98959        1.14498       -1.07033
H         -0.47981        1.39302       -0.25240
H         -1.60836        1.61807        1.10441
H          0.40220        0.41595        1.84777
H         -1.03970       -0.57453        2.04277
H          0.85737       -1.91285        1.21427
H         -0.51564       -1.94577        0.11494
H          1.44769       -1.86652       -1.19172
H          0.62991       -0.33263       -1.41796
H          2.97048       -0.68924        0.54814
H          3.22368       -0.38062       -1.16420
H          1.81997        1.56285        0.77550
H          3.42244        1.74240        0.04106
H          1.96856        1.80748       -0.97759
