21
nuc31_conf-9.log	Energy: -398738.5487251
S          3.29187       -0.61848       -0.00788
C          1.95103        0.61412       -0.23336
C          0.56395        0.12069        0.16669
C         -0.53161        1.15465       -0.11121
C         -1.93070        0.73499        0.35239
C         -2.51038       -0.48101       -0.37539
C         -3.93331       -0.81961        0.06648
H          3.18177       -0.71898        1.33752
H          2.21410        1.54021        0.30209
H          1.98069        0.85172       -1.30906
H          0.35741       -0.82028       -0.36784
H          0.56424       -0.13248        1.24264
H         -0.26048        2.10434        0.38326
H         -0.55686        1.37459       -1.19459
H         -1.90881        0.53155        1.43930
H         -2.61982        1.58815        0.22075
H         -2.49452       -0.29002       -1.46404
H         -1.86089       -1.35843       -0.21431
H         -4.62042        0.02299       -0.11848
H         -4.32802       -1.69662       -0.47041
H         -3.97221       -1.04389        1.14560
