21
nuc31_conf-146.log	Energy: -398735.8952034
S         -3.04471        0.51402       -0.20059
C         -1.70488       -0.54147        0.48976
C         -0.40660       -0.28105       -0.26830
C          0.75054       -1.14764        0.24097
C          2.09395       -0.91951       -0.47477
C          3.00108        0.16138        0.12981
C          2.43757        1.58296        0.13890
H         -4.02281        0.09992        0.63713
H         -1.57451       -0.31072        1.55878
H         -1.99330       -1.60095        0.40317
H         -0.56577       -0.48293       -1.34214
H         -0.15418        0.78779       -0.19187
H          0.88212       -0.98959        1.32751
H          0.45676       -2.20580        0.12891
H          2.65975       -1.86620       -0.47294
H          1.90347       -0.68881       -1.53913
H          3.25957       -0.13185        1.16374
H          3.95427        0.15900       -0.42743
H          2.12611        1.89918       -0.87067
H          1.56237        1.67585        0.80063
H          3.19153        2.30271        0.49552
