21
nuc31_conf-32.log	Energy: -398737.8820076
S         -2.53222       -0.86916       -0.20093
C         -1.88219        0.63555        0.63078
C         -0.79099        1.38491       -0.13612
C          0.43592        0.55836       -0.53350
C          1.17886       -0.07413        0.64526
C          2.43929       -0.85426        0.25136
C          3.56431        0.00449       -0.32841
H         -2.97461       -0.24641       -1.31881
H         -2.72233        1.30791        0.86056
H         -1.50450        0.26083        1.59431
H         -1.23725        1.82808       -1.04387
H         -0.47293        2.23782        0.49220
H          0.12284       -0.24005       -1.22757
H          1.11898        1.21398       -1.09845
H          1.44928        0.71261        1.37527
H          0.49751       -0.76195        1.17373
H          2.81679       -1.38676        1.14138
H          2.16224       -1.64003       -0.47451
H          3.85834        0.80151        0.37553
H          4.46053       -0.60045       -0.53887
H          3.26938        0.49000       -1.27219
