21
nuc31_conf-148.log	Energy: -398735.4231845
S         -2.64467       -0.20576       -0.69852
C         -1.83123       -0.17227        0.95712
C         -0.31134       -0.20620        0.80424
C          0.27462        1.02954        0.11531
C          1.80552        1.12614        0.09624
C          2.54908        0.04921       -0.71441
C          2.86232       -1.24565        0.03979
H         -3.91664       -0.25782       -0.24200
H         -2.14222        0.73816        1.49410
H         -2.17250       -1.04518        1.53285
H          0.12762       -0.30490        1.81330
H         -0.03356       -1.12067        0.25550
H         -0.10100        1.08135       -0.92141
H         -0.12515        1.92761        0.61998
H          2.06284        2.11468       -0.32003
H          2.18968        1.13136        1.13360
H          1.97115       -0.17896       -1.62855
H          3.50333        0.47623       -1.06767
H          3.45860       -1.03846        0.94419
H          1.95454       -1.77679        0.36102
H          3.44416       -1.93918       -0.58838
