21
nuc31_conf-77.log	Energy: -398736.0917475
S          2.75104       -0.19641       -0.62884
C          1.82619       -0.10594        0.95870
C          0.30394       -0.13703        0.82567
C         -0.27941        1.05001        0.05815
C         -1.81017        1.13206        0.00311
C         -2.52662       -0.01431       -0.73453
C         -2.88148       -1.22838        0.12795
H          2.33930       -1.44020       -0.97011
H          2.18093       -0.91188        1.61843
H          2.15748        0.84517        1.40631
H          0.01231       -1.08516        0.34374
H         -0.12581       -0.16737        1.84425
H          0.10330        1.97989        0.51720
H          0.12354        1.03715       -0.96859
H         -2.21697        1.21495        1.02834
H         -2.06620        2.08258       -0.49444
H         -3.46152        0.37814       -1.16985
H         -1.91091       -0.33161       -1.59595
H         -3.42669       -1.98636       -0.45728
H         -1.99262       -1.71720        0.55330
H         -3.52755       -0.93402        0.97186
