21
nuc31_conf-166.log	Energy: -398734.1530451
S         -2.10528       -1.04689       -0.17583
C         -1.57349        0.41639        0.80623
C         -0.89802        1.56099        0.04032
C          0.62375        1.49155       -0.14998
C          1.17029        0.30167       -0.96381
C          1.64852       -0.89391       -0.12439
C          2.95562       -0.63621        0.62673
H         -0.89182       -1.60696       -0.36073
H         -2.52541        0.77101        1.22977
H         -0.96110        0.08098        1.65819
H         -1.39369        1.66440       -0.93994
H         -1.11563        2.49327        0.59190
H          0.92541        2.43144       -0.64124
H          1.11039        1.51619        0.84155
H          0.40075       -0.02987       -1.68018
H          2.02255        0.64172       -1.57736
H          0.86888       -1.18414        0.60145
H          1.78277       -1.76655       -0.78713
H          3.77469       -0.40443       -0.07423
H          2.86726        0.21432        1.32192
H          3.25941       -1.51397        1.21867
