21
nuc31_conf-35.log	Energy: -398736.4854087
S          2.02827       -1.30185       -0.11371
C          2.27764        0.51949       -0.15437
C          1.15908        1.38956        0.42101
C         -0.21041        1.28609       -0.27093
C         -1.15915        0.23273        0.30805
C         -2.50557        0.17065       -0.41388
C         -3.45935       -0.86650        0.17684
H          1.92312       -1.41393        1.23125
H          3.23379        0.74994        0.34018
H          2.41334        0.73726       -1.22612
H          1.04966        1.18184        1.50076
H          1.52026        2.43144        0.35567
H         -0.71006        2.26910       -0.21528
H         -0.05911        1.09051       -1.34837
H         -0.67526       -0.75614        0.26950
H         -1.32919        0.45299        1.37886
H         -2.98112        1.16847       -0.39078
H         -2.33126       -0.05373       -1.48185
H         -3.02149       -1.87768        0.13520
H         -3.68043       -0.64790        1.23509
H         -4.41805       -0.89468       -0.36506
