21
nuc31_conf-155.log	Energy: -398734.3397580
S         -2.42046       -0.42835       -0.55701
C         -1.12460       -0.52604        0.74167
C         -0.42029        0.79671        1.06196
C          0.32115        1.47569       -0.09983
C          1.76520        1.03273       -0.37989
C          1.99249       -0.44105       -0.76985
C          2.31370       -1.37023        0.40365
H         -3.22241        0.45079        0.08913
H         -1.57032       -0.95222        1.65314
H         -0.42496       -1.27709        0.35090
H         -1.18420        1.49124        1.45278
H          0.27611        0.62064        1.90239
H         -0.28611        1.35660       -1.01364
H          0.34714        2.56004        0.10050
H          2.13966        1.67358       -1.19591
H          2.39791        1.27223        0.49507
H          1.11542       -0.81462       -1.32749
H          2.83308       -0.49447       -1.48224
H          1.52477       -1.37073        1.17105
H          2.44905       -2.41104        0.06808
H          3.24627       -1.05811        0.90215
