21
nuc31_conf-6.log	Energy: -398738.1695061
S          2.81417       -0.76845       -0.23603
C          2.08723        0.76312        0.47753
C          0.56696        0.74998        0.63158
C         -0.19885        0.63872       -0.68766
C         -1.72355        0.64994       -0.53899
C         -2.30691       -0.57154        0.17733
C         -3.83353       -0.55656        0.23951
H          2.45100       -1.59130        0.77588
H          2.57929        0.97074        1.43949
H          2.39978        1.55641       -0.22086
H          0.28580       -0.07512        1.30857
H          0.27057        1.68137        1.14950
H          0.10656        1.47559       -1.34103
H          0.11746       -0.28182       -1.20681
H         -2.03743        1.56757       -0.00671
H         -2.17679        0.71732       -1.54398
H         -1.96395       -1.48706       -0.33805
H         -1.90277       -0.63426        1.20256
H         -4.20162        0.33395        0.77610
H         -4.27387       -0.53544       -0.77138
H         -4.22887       -1.44475        0.75742
