21
nuc31_conf-16.log	Energy: -398738.3526215
S          2.91186       -0.77131       -0.04078
C          1.38921        0.06929        0.54268
C          0.68119        0.89739       -0.52642
C         -0.59506        1.58896       -0.02570
C         -1.68716        0.65566        0.51254
C         -2.18668       -0.38833       -0.48906
C         -3.33740       -1.23459        0.05337
H          3.59880        0.35262       -0.35281
H          0.75073       -0.75735        0.89041
H          1.62433        0.68167        1.42813
H          1.37862        1.66667       -0.90059
H          0.45967        0.24873       -1.38949
H         -0.32544        2.31371        0.76308
H         -1.01189        2.18654       -0.85562
H         -1.33001        0.14118        1.42306
H         -2.54216        1.27205        0.84244
H         -2.50444        0.12296       -1.41608
H         -1.35529       -1.05205       -0.78355
H         -3.67656       -1.98003       -0.68312
H         -3.03612       -1.77894        0.96403
H         -4.20470       -0.60703        0.31816
