21
nuc31_conf-80.log	Energy: -398737.3310166
S          3.31036       -0.16935        0.07627
C          1.50010       -0.47733       -0.04421
C          0.77898        0.84055       -0.32137
C         -0.73267        0.68260       -0.52364
C         -1.49133        0.19013        0.71268
C         -3.01665        0.18146        0.55608
C         -3.53693       -0.78868       -0.50578
H          3.67060       -1.44258        0.35744
H          1.30434       -1.19476       -0.85713
H          1.15174       -0.92457        0.89808
H          0.97226        1.53973        0.51138
H          1.21902        1.30183       -1.22196
H         -1.14790        1.65981       -0.82800
H         -0.91168        0.00063       -1.37329
H         -1.15550       -0.82811        0.97913
H         -1.22167        0.83186        1.57065
H         -3.46982       -0.07290        1.52976
H         -3.36166        1.20486        0.32087
H         -3.19882       -1.81889       -0.30181
H         -4.63802       -0.79918       -0.53249
H         -3.18755       -0.52049       -1.51543
