21
nuc31_conf-144.log	Energy: -398733.6837383
S         -1.90603       -1.01962       -0.38612
C         -1.82555        0.71253        0.23341
C         -0.50459        1.17456        0.85701
C          0.61731        1.56885       -0.11772
C          1.28367        0.47916       -0.97505
C          2.35384       -0.37755       -0.28313
C          1.86454       -1.31854        0.82055
H         -1.71220       -1.61769        0.81202
H         -2.07321        1.32525       -0.64879
H         -2.65060        0.84506        0.94907
H         -0.74314        2.07181        1.45637
H         -0.16054        0.42065        1.58152
H          0.20072        2.33533       -0.79624
H          1.40408        2.08772        0.45992
H          0.51575       -0.17765       -1.41278
H          1.77237        0.98703       -1.82448
H          2.85094       -0.98291       -1.06131
H          3.13936        0.28634        0.12347
H          1.53536       -0.77072        1.71699
H          1.01461       -1.92730        0.47381
H          2.66758       -2.00309        1.13789
