21
nuc31_conf-107.log	Energy: -398736.0736238
S         -2.92303        0.55898       -0.17157
C         -1.45567       -0.52203       -0.37910
C         -0.42799       -0.40640        0.74462
C          0.82614       -1.26482        0.51322
C          1.75714       -0.81556       -0.62825
C          2.83257        0.21232       -0.24938
C          2.32281        1.57548        0.22106
H         -3.35713        0.00889        0.98669
H         -1.78466       -1.56554       -0.50905
H         -1.02811       -0.20272       -1.34214
H         -0.16522        0.65352        0.87475
H         -0.90640       -0.72056        1.68874
H          1.40753       -1.30960        1.45119
H          0.49681       -2.30144        0.32169
H          2.27338       -1.70445       -1.02804
H          1.15911       -0.42291       -1.47037
H          3.47885       -0.22355        0.53434
H          3.48671        0.36059       -1.12642
H          1.62827        2.02014       -0.51133
H          1.79202        1.50887        1.18313
H          3.15745        2.28120        0.35894
