21
nuc31_conf-7.log	Energy: -398738.2221008
S         -2.62296        0.97029        0.02071
C         -2.13934       -0.77003       -0.32658
C         -0.79502       -1.20083        0.25835
C          0.40944       -0.43256       -0.28337
C          1.73407       -0.86664        0.34655
C          2.96912       -0.15404       -0.21698
C          2.99980        1.35345        0.03966
H         -2.71515        0.83434        1.36456
H         -2.94824       -1.43435        0.01244
H         -2.11843       -0.82574       -1.42706
H         -0.83146       -1.10428        1.35883
H         -0.66771       -2.28040        0.05491
H          0.46316       -0.56868       -1.37991
H          0.24128        0.64361       -0.11872
H          1.68626       -0.70068        1.43921
H          1.85693       -1.95654        0.21316
H          3.87259       -0.61345        0.22015
H          3.03061       -0.34378       -1.30420
H          2.16352        1.87219       -0.45478
H          2.93259        1.57335        1.11866
H          3.93297        1.80368       -0.33435
