21
nuc31_conf-49.log	Energy: -398737.8949041
S         -3.33434       -0.37036       -0.13289
C         -1.57974       -0.28028        0.41481
C         -0.88904        0.88730       -0.28752
C          0.56117        1.10426        0.15986
C          1.51709       -0.04159       -0.17912
C          2.97089        0.24774        0.19917
C          3.92349       -0.89911       -0.13421
H         -3.66836       -1.46953        0.58138
H         -1.54420       -0.14046        1.50704
H         -1.08321       -1.23181        0.17520
H         -0.92033        0.72140       -1.37890
H         -1.46828        1.80695       -0.09742
H          0.93551        2.03049       -0.31035
H          0.58439        1.29012        1.24950
H          1.19415       -0.96737        0.32951
H          1.45666       -0.25709       -1.26225
H          3.30250        1.16770       -0.31541
H          3.02506        0.47319        1.27967
H          4.96115       -0.66119        0.14836
H          3.63672       -1.82285        0.39570
H          3.91453       -1.12376       -1.21386
