21
nuc31_conf-136.log	Energy: -398735.5403336
S          2.29471        0.82675       -0.37372
C          1.91729       -0.75446        0.50068
C          0.41529       -0.87224        0.74927
C         -0.42535       -1.01159       -0.52548
C         -1.94557       -0.99154       -0.28877
C         -2.60451        0.39198       -0.38673
C         -2.09906        1.44327        0.60234
H          3.64140        0.71068       -0.32910
H          2.27627       -1.59925       -0.10884
H          2.46131       -0.76350        1.45647
H          0.24452       -1.75678        1.38845
H          0.08315       -0.00377        1.33931
H         -0.15548       -0.21427       -1.23977
H         -0.13772       -1.95640       -1.01861
H         -2.43316       -1.64703       -1.02957
H         -2.16961       -1.43921        0.69746
H         -2.46944        0.77286       -1.41540
H         -3.69366        0.26736       -0.25438
H         -1.04186        1.69809        0.42871
H         -2.67702        2.37688        0.51244
H         -2.19256        1.09395        1.64447
