21
nuc31_conf-123.log	Energy: -398735.9883528
S         -2.09493       -1.01828       -0.06224
C         -1.82158        0.79854       -0.17284
C         -0.44064        1.27804       -0.63265
C          0.64377        1.39536        0.44763
C          1.14717        0.09810        1.09750
C          1.66605       -0.97320        0.13023
C          2.80874       -0.50463       -0.77095
H         -1.39040       -1.24319        1.06752
H         -2.58173        1.10885       -0.90597
H         -2.10535        1.26183        0.78568
H         -0.09728        0.64200       -1.46508
H         -0.58064        2.28619       -1.06238
H          1.50367        1.92252        0.00020
H          0.27349        2.06523        1.24450
H          1.95484        0.36633        1.80231
H          0.35062       -0.33896        1.72392
H          2.00521       -1.83954        0.72451
H          0.83092       -1.34413       -0.48712
H          3.19654       -1.33276       -1.38493
H          2.48793        0.29100       -1.46233
H          3.65004       -0.10622       -0.17850
