21
nuc31_conf-34.log	Energy: -398738.4589755
S         -2.23306        1.10928        0.03271
C         -1.87495       -0.61188       -0.50794
C         -0.98424       -1.41969        0.43841
C          0.40835       -0.83282        0.68542
C          1.26210       -0.67359       -0.57539
C          2.68298       -0.16016       -0.31354
C          2.74199        1.26004        0.25130
H         -1.00863        1.62322       -0.22334
H         -2.86833       -1.07942       -0.58350
H         -1.46440       -0.58102       -1.52804
H         -1.50459       -1.52994        1.40418
H         -0.88509       -2.43678        0.01495
H          0.29272        0.14101        1.18937
H          0.94337       -1.48137        1.40121
H          1.31850       -1.64714       -1.09481
H          0.76382        0.01518       -1.28231
H          3.19703       -0.85327        0.37700
H          3.25298       -0.19690       -1.25790
H          3.78233        1.60360        0.36429
H          2.22747        1.97329       -0.41531
H          2.26434        1.32969        1.24131
