21
nuc31_conf-167.log	Energy: -398734.2717009
S         -1.36694       -1.42999       -0.31684
C         -1.76796        0.10084        0.63221
C         -1.37271        1.35945       -0.14987
C          0.07896        1.84593       -0.02829
C          1.18390        0.89353       -0.51836
C          1.75485       -0.03653        0.55667
C          2.77481       -1.02745        0.00157
H         -1.79070       -2.31071        0.61882
H         -2.85214        0.10278        0.81546
H         -1.25831        0.07604        1.60826
H         -1.62834        1.21258       -1.21476
H         -2.02802        2.17554        0.20011
H          0.14189        2.79014       -0.59493
H          0.27961        2.12047        1.02377
H          0.80724        0.29039       -1.36345
H          2.01664        1.49171       -0.92854
H          2.21851        0.57860        1.34943
H          0.93728       -0.59932        1.03376
H          3.60795       -0.50916       -0.50286
H          3.20547       -1.65676        0.79676
H          2.30283       -1.69707       -0.73605
