21
nuc31_conf-3.log	Energy: -398738.9809536
S          2.98729       -0.76413       -0.20714
C          2.22458        0.82432        0.32173
C          0.81441        1.08056       -0.20735
C         -0.24407        0.10475        0.30422
C         -1.65472        0.42103       -0.19244
C         -2.71497       -0.56410        0.30253
C         -4.12173       -0.24404       -0.20002
H          2.25643       -1.57578        0.58964
H          2.25394        0.88087        1.42141
H          2.91964        1.58976       -0.05552
H          0.52860        2.10987        0.07908
H          0.83432        1.05737       -1.31060
H          0.02752       -0.91849       -0.00840
H         -0.23618        0.10155        1.41056
H         -1.93387        1.44480        0.11887
H         -1.65621        0.43353       -1.29804
H         -2.43233       -1.58562       -0.00999
H         -2.70965       -0.57663        1.40760
H         -4.86183       -0.96995        0.17220
H         -4.44372        0.75870        0.12732
H         -4.16429       -0.25897       -1.30191
