21
nuc31_conf-159.log	Energy: -398735.4670619
S          2.19848        0.61440       -0.36197
C          1.24444       -0.31209        0.91771
C          0.51513       -1.49970        0.28342
C         -0.55732       -1.17656       -0.77040
C         -1.94857       -0.80509       -0.23528
C         -2.07472        0.49332        0.57380
C         -1.62040        1.75035       -0.16959
H          2.64001        1.59423        0.45877
H          1.94800       -0.67752        1.68046
H          0.54365        0.37924        1.40326
H          1.27760       -2.15516       -0.17158
H          0.06017       -2.08924        1.09997
H         -0.18469       -0.38640       -1.44341
H         -0.68093       -2.06931       -1.40579
H         -2.63392       -0.73881       -1.09961
H         -2.32356       -1.64293        0.38025
H         -3.13284        0.60767        0.86752
H         -1.52059        0.40064        1.52398
H         -1.81138        2.65605        0.42813
H         -0.54467        1.72775       -0.40511
H         -2.16387        1.86205       -1.12317
