21
nuc31_conf-93.log	Energy: -398736.6109959
S         -2.84201       -0.48771       -0.22338
C         -1.12950       -0.22546        0.38098
C         -0.54138        1.13885        0.02058
C          0.90238        1.36872        0.50286
C          2.01278        0.88468       -0.44183
C          2.09818       -0.62290       -0.71425
C          2.33596       -1.47789        0.53057
H         -3.41250        0.51180        0.48953
H         -1.09933       -0.38909        1.46987
H         -0.56145       -1.04634       -0.07788
H         -0.60514        1.28323       -1.07166
H         -1.19395        1.91106        0.46318
H          1.04672        2.45249        0.64668
H          1.03120        0.92305        1.50541
H          1.90023        1.41082       -1.40652
H          2.98227        1.21777       -0.02894
H          1.18650       -0.96354       -1.23513
H          2.92069       -0.79439       -1.42996
H          1.49997       -1.41157        1.24450
H          2.45915       -2.54065        0.26877
H          3.24735       -1.15734        1.06276
