21
nuc31_conf-24.log	Energy: -398738.3425336
S         -3.14721       -0.37313       -0.16968
C         -1.93081        0.95490        0.20686
C         -0.50565        0.69914       -0.28208
C          0.18881       -0.48612        0.38974
C          1.61727       -0.74560       -0.09999
C          2.62690        0.35513        0.23709
C          4.04965        0.01730       -0.20622
H         -2.72675       -1.25842        0.76151
H         -2.34984        1.84447       -0.28751
H         -1.95017        1.15386        1.29006
H         -0.52214        0.54239       -1.37475
H          0.07358        1.62276       -0.10577
H          0.19912       -0.32996        1.48518
H         -0.41550       -1.39116        0.21184
H          1.97413       -1.69637        0.33443
H          1.60262       -0.90315       -1.19447
H          2.31676        1.30513       -0.23133
H          2.61058        0.53700        1.32738
H          4.09974       -0.14031       -1.29659
H          4.75719        0.82264        0.04701
H          4.40895       -0.90738        0.27556
