21
nuc31_conf-74.log	Energy: -398736.0848437
S          2.97548        0.21416       -0.27408
C          1.71487       -0.81711        0.57997
C          0.27316       -0.60705        0.11504
C         -0.26798        0.79793        0.38520
C         -1.63251        1.13040       -0.23075
C         -2.83742        0.32048        0.27969
C         -3.07387       -1.02158       -0.41796
H          2.80104       -0.32551       -1.50341
H          2.00713       -1.87401        0.49054
H          1.82203       -0.54397        1.64235
H          0.20314       -0.83520       -0.96402
H         -0.34939       -1.36073        0.62699
H         -0.31746        0.95475        1.47899
H          0.47167        1.52360        0.00814
H         -1.82453        2.19919       -0.03648
H         -1.57107        1.03611       -1.33110
H         -2.73393        0.16431        1.36930
H         -3.74698        0.93301        0.15535
H         -3.20167       -0.88119       -1.50437
H         -2.23996       -1.72433       -0.27570
H         -3.98529       -1.51095       -0.03836
