21
nuc31_conf-84.log	Energy: -398736.8062624
S         -2.98225       -0.64597        0.08505
C         -1.37253       -0.02531       -0.54217
C         -0.71224        1.02007        0.35663
C          0.61095        1.58493       -0.19425
C          1.88359        0.83570        0.22048
C          1.99013       -0.62247       -0.23339
C          3.33813       -1.25412        0.11222
H         -2.49241       -1.23962        1.19859
H         -0.71161       -0.88060       -0.73789
H         -1.61648        0.41587       -1.52192
H         -1.43668        1.83696        0.50435
H         -0.54132        0.58733        1.35905
H          0.55537        1.63694       -1.29736
H          0.71204        2.62900        0.14560
H          2.75592        1.38916       -0.17154
H          1.97765        0.87341        1.32180
H          1.18465       -1.21759        0.23013
H          1.82160       -0.67925       -1.32416
H          3.52018       -1.23248        1.19971
H          3.39083       -2.30479       -0.21405
H          4.16812       -0.71156       -0.37022
