21
nuc31_conf-163.log	Energy: -398735.0206723
S         -2.75065        0.37124       -0.01627
C         -1.14704       -0.29103        0.58119
C         -0.35860       -1.06820       -0.47260
C          1.00610       -1.58033        0.02494
C          2.22037       -0.66332       -0.18887
C          2.20432        0.71623        0.49443
C          1.52897        1.83460       -0.30411
H         -2.23018        1.20876       -0.94385
H         -0.56082        0.53092        1.01404
H         -1.42039       -0.95502        1.41664
H         -0.98357       -1.91524       -0.79819
H         -0.21811       -0.44112       -1.37004
H          0.92693       -1.83275        1.09863
H          1.22502       -2.53413       -0.48366
H          3.10641       -1.21664        0.16622
H          2.37724       -0.52112       -1.27425
H          1.74045        0.62746        1.49342
H          3.24749        1.02161        0.68389
H          0.46382        1.63925       -0.49605
H          1.59359        2.79742        0.22756
H          2.01776        1.96311       -1.28399
