21
nuc31_conf-56.log	Energy: -398737.8264259
S         -3.45480       -0.08540       -0.18174
C         -1.81696        0.58918        0.31705
C         -0.71451       -0.38214       -0.09447
C          0.68167        0.11159        0.28985
C          1.79410       -0.85438       -0.12449
C          3.20360       -0.42590        0.29990
C          3.69582        0.86704       -0.35236
H         -4.20018        0.94018        0.28989
H         -1.66350        1.56700       -0.16589
H         -1.80291        0.74211        1.40759
H         -0.90247       -1.36525        0.37200
H         -0.76194       -0.54513       -1.18564
H          0.85161        1.10132       -0.16855
H          0.72676        0.27130        1.38309
H          1.57709       -1.84882        0.30415
H          1.76800       -0.98700       -1.22206
H          3.23295       -0.31833        1.39959
H          3.90705       -1.24142        0.05873
H          3.67001        0.79127       -1.45264
H          3.07889        1.73385       -0.06672
H          4.73307        1.09308       -0.05862
