21
nuc31_conf-158.log	Energy: -398735.4671014
S          2.19848        0.61439       -0.36198
C          1.24444       -0.31208        0.91771
C          0.51513       -1.49970        0.28343
C         -0.55732       -1.17655       -0.77040
C         -1.94857       -0.80509       -0.23529
C         -2.07474        0.49332        0.57379
C         -1.62039        1.75035       -0.16959
H          2.64002        1.59422        0.45876
H          1.94799       -0.67751        1.68047
H          0.54366        0.37926        1.40325
H          1.27759       -2.15517       -0.17156
H          0.06016       -2.08922        1.09999
H         -0.18469       -0.38639       -1.44340
H         -0.68092       -2.06930       -1.40579
H         -2.63391       -0.73880       -1.09963
H         -2.32357       -1.64293        0.38023
H         -3.13286        0.60767        0.86749
H         -1.52063        0.40063        1.52398
H         -2.16385        1.86206       -1.12317
H         -1.81138        2.65604        0.42814
H         -0.54466        1.72774       -0.40509
