21
nuc31_conf-2.log	Energy: -398738.5179125
S          3.36846       -0.43052       -0.00582
C          1.59030       -0.24368       -0.42248
C          0.88437        0.88153        0.33145
C         -0.56581        1.11224       -0.11152
C         -1.52213       -0.04581        0.18338
C         -2.97368        0.25203       -0.19684
C         -3.92673       -0.90560        0.09545
H          3.18542       -0.76719        1.29240
H          1.58546       -0.04209       -1.50616
H          1.08851       -1.21163       -0.27736
H          0.90738        0.65990        1.41397
H          1.46613        1.80793        0.19729
H         -0.94376        2.02106        0.38906
H         -0.58578        1.33644       -1.19416
H         -1.19311       -0.95483       -0.35092
H         -1.47016       -0.29468        1.25993
H         -3.31060        1.15604        0.34203
H         -3.02015        0.50901       -1.27060
H         -3.63419       -1.81295       -0.45903
H         -3.92588       -1.16175        1.16813
H         -4.96259       -0.66117       -0.18813
