21
nuc31_conf-115.log	Energy: -398736.4987815
S         -2.80056        0.40107        0.02407
C         -1.19623       -0.33861        0.52313
C         -0.36581       -0.87077       -0.64133
C          0.94090       -1.55235       -0.21344
C          1.96101       -0.70303        0.56107
C          2.51877        0.52865       -0.17412
C          1.68417        1.80725       -0.05713
H         -2.27689        1.42261       -0.69340
H         -0.63936        0.39820        1.11910
H         -1.47190       -1.15756        1.20716
H         -0.98045       -1.58910       -1.20812
H         -0.15160       -0.04666       -1.34243
H          0.69087       -2.43739        0.39914
H          1.43335       -1.94606       -1.12024
H          1.53819       -0.38684        1.53163
H          2.80349       -1.36813        0.81528
H          3.52508        0.74423        0.22388
H          2.67084        0.27730       -1.23983
H          0.69019        1.70828       -0.51746
H          1.53193        2.08252        0.99988
H          2.18836        2.65456       -0.54874
