21
nuc31_conf-48.log	Energy: -398735.9376412
S          1.97121       -1.21827       -0.13493
C          2.08390        0.50573        0.49456
C          1.02758        1.49471       -0.00054
C         -0.43346        1.13788        0.32409
C         -1.16606        0.36646       -0.77933
C         -2.61901        0.01336       -0.44287
C         -2.77309       -0.98618        0.70520
H          2.13822       -0.91722       -1.44413
H          2.00652        0.38533        1.58727
H          3.09552        0.88730        0.28759
H          1.27860        2.46676        0.46008
H          1.14501        1.64408       -1.08903
H         -0.45827        0.56336        1.26611
H         -0.99439        2.06744        0.52551
H         -1.14768        0.97620       -1.70074
H         -0.60864       -0.55654       -1.00653
H         -3.17628        0.93850       -0.20527
H         -3.09798       -0.40214       -1.34641
H         -2.21339       -1.91370        0.49925
H         -2.39640       -0.58085        1.65777
H         -3.82932       -1.25790        0.86069
