21
nuc31_conf-127.log	Energy: -398737.1178667
S         -2.64641       -0.38037       -0.05362
C         -1.34420        0.65161        0.74708
C         -0.34321        1.15752       -0.29189
C          0.37688        0.06755       -1.09776
C          1.09345       -0.99937       -0.25999
C          2.13970       -0.47136        0.73040
C          3.27924        0.31523        0.08168
H         -3.35782       -0.62099        1.07103
H         -1.82554        1.50504        1.24697
H         -0.83730        0.04980        1.51602
H         -0.86338        1.83469       -0.99045
H          0.39557        1.78053        0.24170
H         -0.35155       -0.43892       -1.75290
H          1.09485        0.55907       -1.77581
H          0.34005       -1.59146        0.28694
H          1.58333       -1.70908       -0.95019
H          1.64996        0.15785        1.49465
H          2.56002       -1.32951        1.28276
H          2.91977        1.23837       -0.40061
H          4.03824        0.60802        0.82439
H          3.78505       -0.28463       -0.69369
