19
nuc32_conf-8.log	Energy: -397977.4319555
S          2.41093       -0.04020       -0.12477
C          0.58166       -0.03586       -0.31114
C         -0.04729        1.32305        0.05812
C         -1.56218        1.20646        0.34281
C         -2.18910        0.04990       -0.43942
C         -1.59065       -1.30279       -0.00004
C         -0.11117       -1.17979        0.43243
H          2.41860        0.12465        1.21959
H          0.46291       -0.20930       -1.39399
H          0.46549        1.72908        0.94507
H          0.14546        2.03677       -0.75846
H         -2.06406        2.15825        0.10706
H         -1.72629        1.03341        1.42057
H         -2.00839        0.20938       -1.51684
H         -3.28342        0.04038       -0.31374
H         -1.67923       -2.02887       -0.82479
H         -2.17599       -1.71715        0.83732
H          0.42668       -2.12376        0.26225
H         -0.04428       -0.97538        1.51570
