19
nuc32_conf-5.log	Energy: -397982.3292779
S         -1.91734       -0.09334       -0.56441
C         -0.69205        0.01381        0.82674
C          0.17292        1.27986        0.75736
C          1.14304        1.26905       -0.42790
C          2.01364        0.00732       -0.42348
C          1.15839       -1.26453       -0.38801
C          0.18272       -1.24866        0.79511
H         -2.57960        1.04651       -0.26091
H         -1.28029        0.01733        1.75635
H         -0.46768        2.17657        0.73001
H          0.74922        1.33729        1.70009
H          1.77389        2.17267       -0.40286
H          0.56176        1.30931       -1.36416
H          2.67380        0.02402        0.46394
H          2.67671       -0.00290       -1.30421
H          1.80021       -2.15872       -0.32658
H          0.59184       -1.35013       -1.33103
H          0.75854       -1.27101        1.73791
H         -0.45296       -2.14866        0.79307
