19
nuc32_conf-3.log	Energy: -397982.3292741
S         -1.91734       -0.09334       -0.56440
C         -0.69205        0.01381        0.82675
C          0.17292        1.27985        0.75736
C          1.14303        1.26905       -0.42789
C          2.01363        0.00732       -0.42349
C          1.15839       -1.26453       -0.38802
C          0.18273       -1.24866        0.79511
H         -2.57950        1.04659       -0.26101
H         -1.28029        0.01732        1.75636
H         -0.46768        2.17656        0.73003
H          0.74922        1.33728        1.70009
H          1.77388        2.17268       -0.40286
H          0.56175        1.30931       -1.36416
H          2.67380        0.02402        0.46393
H          2.67670       -0.00290       -1.30422
H          1.80021       -2.15872       -0.32659
H          0.59183       -1.35012       -1.33103
H          0.75855       -1.27100        1.73791
H         -0.45295       -2.14866        0.79307
