19
nuc32_conf-0.log	Energy: -397983.9449409
S         -2.42831        0.00000       -0.01247
C         -0.62026        0.00000       -0.35896
C          0.07644       -1.26636        0.15001
C          1.56993       -1.26421       -0.20146
C          2.26709        0.00000        0.31151
C          1.56993        1.26421       -0.20147
C          0.07644        1.26636        0.15001
H         -2.31447       -0.00000        1.33708
H         -0.58739        0.00000       -1.46298
H         -0.04203       -1.31462        1.24817
H         -0.42488       -2.15695       -0.25916
H          1.68291       -1.32147       -1.29963
H          2.05325       -2.16655        0.20801
H          3.32916        0.00000        0.01578
H          2.24984        0.00000        1.41695
H          1.68291        1.32147       -1.29963
H          2.05325        2.16655        0.20801
H         -0.42488        2.15695       -0.25916
H         -0.04203        1.31461        1.24817
