19
nuc32_conf-1.log	Energy: -397983.6045421
S          2.39615       -0.07498       -0.10612
C          0.61699        0.01132        0.37341
C         -0.07053       -1.26280       -0.13098
C         -1.56426       -1.26007        0.21556
C         -2.26390       -0.00449       -0.31490
C         -1.57166        1.26795        0.18418
C         -0.07785        1.26522       -0.16525
H          2.77047        1.08300        0.48574
H          0.57205        0.01756        1.47559
H          0.05367       -1.32178       -1.22750
H          0.42515       -2.15043        0.29379
H         -1.68155       -1.30562        1.31364
H         -2.04220       -2.16843       -0.18649
H         -3.32661       -0.00474       -0.02148
H         -2.24329       -0.01794       -1.41998
H         -1.68993        1.34018        1.28090
H         -2.05451        2.16353       -0.24027
H          0.41269        2.16877        0.23306
H          0.05290        1.29286       -1.26106
