19
nuc32_conf-7.log	Energy: -397977.2511098
S          2.30890        0.00736       -0.22099
C          0.66013        0.22230        0.57971
C         -0.11901       -1.10330        0.74449
C         -1.12412       -1.30077       -0.39145
C         -2.21142       -0.20453       -0.36618
C         -1.67102        1.13150        0.18884
C         -0.18357        1.29705       -0.13665
H          1.83836       -0.42307       -1.41565
H          0.94019        0.59094        1.57933
H          0.58816       -1.94270        0.80935
H         -0.66619       -1.07882        1.70337
H         -1.58308       -2.30016       -0.33335
H         -0.58323       -1.27418       -1.35350
H         -3.06586       -0.53719        0.24607
H         -2.60449       -0.05540       -1.38550
H         -1.80386        1.16909        1.28401
H         -2.24939        1.97707       -0.21589
H          0.18532        2.29836        0.13232
H         -0.04438        1.20481       -1.22719
