19
nuc32_conf-6.log	Energy: -397982.3293023
S          1.91735       -0.09334       -0.56440
C          0.69205        0.01381        0.82674
C         -0.18273       -1.24866        0.79510
C         -1.15839       -1.26453       -0.38802
C         -2.01364        0.00732       -0.42348
C         -1.14303        1.26905       -0.42789
C         -0.17292        1.27985        0.75736
H          2.57950        1.04659       -0.26100
H          1.28028        0.01731        1.75636
H          0.45295       -2.14867        0.79306
H         -0.75855       -1.27101        1.73790
H         -1.80021       -2.15872       -0.32660
H         -0.59184       -1.35011       -1.33104
H         -2.67380        0.02402        0.46394
H         -2.67671       -0.00289       -1.30421
H         -1.77388        2.17268       -0.40286
H         -0.56176        1.30931       -1.36416
H         -0.74922        1.33728        1.70009
H          0.46769        2.17656        0.73002
