15
nuc33_conf-1.log	Energy: -349377.2040762
S         -1.50914       -0.07888       -0.00000
C          0.35481        0.00545       -0.00000
C          0.84201        0.72526       -1.26089
C          0.84201        0.72527        1.26088
C          0.82421       -1.45447        0.00001
H         -1.71920        1.25819        0.00002
H          0.49078        1.76881       -1.28509
H          1.94547        0.74093       -1.28738
H          0.47921        0.22210       -2.16902
H          0.47919        0.22212        2.16901
H          0.49078        1.76883        1.28507
H          1.94547        0.74094        1.28738
H          1.92581       -1.48986        0.00003
H          0.46525       -1.98954        0.89263
H          0.46528       -1.98954       -0.89262
