15
nuc33_conf-2.log	Energy: -349377.2040712
S          1.50914        0.07887       -0.00000
C         -0.35481       -0.00545        0.00000
C         -0.84202       -0.72526        1.26088
C         -0.82419        1.45447        0.00001
C         -0.84202       -0.72525       -1.26089
H          1.71921       -1.25820       -0.00000
H         -0.47920       -0.22213        2.16901
H         -1.94548       -0.74091        1.28738
H         -0.49081       -1.76883        1.28506
H         -1.92579        1.48988        0.00001
H         -0.46524        1.98955       -0.89261
H         -0.46524        1.98954        0.89264
H         -1.94548       -0.74090       -1.28738
H         -0.47920       -0.22209       -2.16902
H         -0.49081       -1.76881       -1.28509
