12
nuc11_conf-0.log	Energy: -405769.9339322
S          2.25612        0.07049       -0.00001
C          0.47929        0.01287       -0.00000
N         -0.11259       -1.18042        0.00001
C         -1.44825       -1.22410        0.00001
C         -2.25599       -0.08651        0.00001
C         -1.62666        1.16348       -0.00000
C         -0.23705        1.22494       -0.00001
H         -1.89799       -2.22359        0.00002
H         -3.34363       -0.17711        0.00001
H         -2.21566        2.08407       -0.00001
H          0.28862        2.18181       -0.00002
H          2.39091       -1.27414        0.00000
