19
nuc01_conf-1.log	Energy: -538767.0107726
S         -3.90853       -0.11931       -0.00000
C         -2.13768       -0.05317       -0.00000
C         -1.32863       -1.20192        0.00000
C          0.05859       -1.08244        0.00000
C          0.66420        0.18277        0.00000
C          2.13964        0.36496        0.00000
O          2.80435       -0.80867       -0.00000
C          4.22632       -0.72001       -0.00000
O          2.70039        1.43743        0.00000
C         -0.14644        1.32841       -0.00000
C         -1.53176        1.21658       -0.00000
H         -4.01819       -1.46626        0.00001
H         -1.78552       -2.19408        0.00000
H          0.68439       -1.97522        0.00000
H          4.59821       -1.75192       -0.00001
H          4.58516       -0.18386        0.89172
H          4.58516       -0.18385       -0.89171
H          0.33608        2.30729       -0.00000
H         -2.15221        2.11572       -0.00000
