13
nuc05_conf-0.log	Energy: -739019.9615666
S         -2.95569       -0.44952       -0.04122
C         -1.17662       -0.35805        0.00154
C         -0.55110        0.92885        0.00236
N         -1.27600        2.08633       -0.02304
N          0.77868        1.01282       -0.00190
C          1.47633       -0.11000        0.00086
Cl         3.21912        0.01436       -0.01520
C          0.87709       -1.37034        0.02848
N         -0.45775       -1.46214        0.02586
H         -2.98701       -1.77551        0.21488
H         -0.75154        2.93947        0.13364
H         -2.23145        2.07111        0.31371
H          1.46731       -2.28877        0.04989
