13
nuc05_conf-1.log	Energy: -739019.4635688
S         -2.95061       -0.56198       -0.02472
C         -1.16930       -0.38476        0.00729
C         -0.55853        0.90741       -0.00894
N         -1.29732        2.05584        0.00471
N          0.77329        1.01079        0.00477
C          1.48036       -0.10310        0.00007
Cl         3.22067        0.03755        0.02117
C          0.89491       -1.37336       -0.03481
N         -0.43533       -1.48028       -0.02181
H         -3.19174        0.34498        0.95451
H         -0.78048        2.90962       -0.17587
H         -2.23687        2.00052       -0.37422
H          1.49824       -2.28332       -0.06414
