13
nuc12_conf-0.log	Energy: -395702.0187153
S          2.28952       -0.08367        0.00001
C          0.51287        0.00104        0.00000
C         -0.19828       -1.21023       -0.00000
C         -1.59347       -1.20354       -0.00001
C         -2.29856        0.00368       -0.00001
C         -1.59118        1.20852       -0.00001
C         -0.19474        1.21288        0.00000
H          2.51186        1.24913        0.00002
H          0.34372       -2.15909       -0.00000
H         -2.13346       -2.15361       -0.00001
H         -3.39061        0.00509       -0.00001
H         -2.12853        2.16015       -0.00001
H          0.34489        2.16291        0.00000
