16
nuc15_conf-0.log	Energy: -420386.2428234
S         -2.78340       -0.08573       -0.00001
C         -1.00618        0.00247       -0.00001
C         -0.28843       -1.20516        0.00015
C          1.10426       -1.19467        0.00016
C          1.83022        0.00762        0.00001
C          3.33777       -0.00094        0.00005
C          1.10145        1.20354       -0.00016
C         -0.29552        1.20953       -0.00017
H         -3.00777        1.24671       -0.00022
H         -0.82493       -2.15725        0.00027
H          1.64201       -2.14721        0.00029
H          3.73613       -0.52316       -0.88588
H          3.73609       -0.52241        0.88644
H          3.74660        1.02007       -0.00036
H          1.63487        2.15812       -0.00028
H         -0.83010        2.16249       -0.00030
