19
nuc44_conf-0.log	Energy: -445071.2932309
S         -2.12845        0.30923       -0.00016
C         -0.35715        0.07648       -0.00003
C          0.56040        1.15074        0.00001
C          0.11292        2.58909       -0.00005
C          1.93000        0.85065        0.00012
C          2.38803       -0.46550        0.00019
C          1.46674       -1.51221        0.00015
C          0.08948       -1.26470        0.00004
C         -0.89564       -2.40348       -0.00000
H         -2.13191        1.65574       -0.00037
H          0.97728        3.26763        0.00003
H         -0.49693        2.82707        0.88871
H         -0.49675        2.82705       -0.88894
H          2.64690        1.67587        0.00015
H          3.46002       -0.67469        0.00027
H          1.81524       -2.54830        0.00020
H         -1.55388       -2.36539       -0.88491
H         -1.55400       -2.36537        0.88482
H         -0.37955       -3.37378        0.00005
