14
nuc19_conf-1.log	Energy: -442928.1930988
S          2.75381        0.05770       -0.06575
C          0.96381        0.00648        0.00257
C          0.25926       -1.20810       -0.02514
C         -1.13207       -1.22533       -0.00900
C         -1.85021       -0.01968        0.00190
O         -3.20517       -0.09088        0.00441
C         -1.15419        1.19563        0.00907
C          0.24248        1.20582        0.02003
H          2.98376       -0.70835        1.02686
H          0.81123       -2.14969       -0.06254
H         -1.68598       -2.16579       -0.02028
H         -3.57463        0.80178        0.00657
H         -1.70665        2.14035        0.02015
H          0.77826        2.15668        0.04929
