12
elec30_conf-0.log	Energy: -1815666.0808289
Br        -2.04466       -0.22402       -0.00008
C         -0.17560        0.19416       -0.00002
N          0.66321       -0.81300        0.00007
C          1.97796       -0.50266        0.00012
N          2.85205       -1.53529        0.00021
N          2.48443        0.74314        0.00007
C          1.59957        1.73607       -0.00002
C          0.21645        1.53718       -0.00007
H          3.84306       -1.34163        0.00022
H          2.50319       -2.48287        0.00023
H          2.00634        2.75445       -0.00006
H         -0.49762        2.35825       -0.00015
