16
elec39_conf-0.log	Energy: -839249.5576743
Cl        -3.44219       -0.73041        0.00002
C         -1.72130       -0.40231        0.00001
N         -0.90919       -1.41159        0.00001
C          0.42928       -1.17065        0.00000
N          1.24060       -2.25425       -0.00000
C          2.54214       -2.06693       -0.00001
C          3.16313       -0.79185       -0.00001
C          2.36437        0.33000       -0.00001
C          0.95842        0.16592       -0.00000
C          0.01343        1.23475       -0.00000
Cl         0.56350        2.88621       -0.00001
C         -1.33434        0.96728        0.00000
H          3.16716       -2.96868       -0.00001
H          4.25182       -0.71318       -0.00002
H          2.78710        1.33571       -0.00001
H         -2.07905        1.76118        0.00001
