13
elec21_conf-0.log	Energy: -479052.4249649
N         -2.59448       -1.35590       -0.00023
C         -1.55991       -0.59430       -0.00014
C         -0.14472       -0.95022       -0.00001
C          0.82171        0.01139        0.00007
Cl         2.50723       -0.43937        0.00022
C          0.50840        1.41091        0.00005
C         -0.81491        1.74405       -0.00007
N         -1.78524        0.79573       -0.00015
H         -2.31442       -2.33786       -0.00020
H          0.11839       -2.00789        0.00001
H         -2.76621        1.05790       -0.00024
H         -1.15654        2.78087       -0.00010
H          1.29041        2.16643        0.00012
