28
elec23_conf-0.log	Energy: -696181.9304337
Cl        -4.06225       -1.80459        0.00049
C         -3.17883       -0.30372        0.00017
C         -3.87297        0.91017       -0.00003
C         -3.10512        2.07455       -0.00028
N         -1.77271        2.08653       -0.00033
C         -1.12918        0.91390       -0.00013
N          0.25894        1.04338       -0.00021
C          1.21361        0.05051       -0.00005
O          2.42610        0.62815       -0.00020
C          3.65697       -0.16999       -0.00010
C          3.72474       -1.02016       -1.26976
C          4.75027        0.89596       -0.00034
C          3.72483       -1.01968        1.26988
O          0.98505       -1.14015        0.00018
C         -1.78782       -0.33001        0.00013
H         -4.96220        0.94059       -0.00000
H         -3.59951        3.05248       -0.00045
H          0.58461        2.00464       -0.00040
H          3.62026       -0.38287       -2.16133
H          4.70136       -1.52510       -1.32215
H          2.93326       -1.77943       -1.28012
H          4.66717        1.53399       -0.89272
H          5.74218        0.42044       -0.00028
H          4.66723        1.53432        0.89181
H          4.70145       -1.52460        1.32239
H          3.62041       -0.38205        2.16121
H          2.93335       -1.77894        1.28059
H         -1.22308       -1.25810        0.00028
