28
elec23_conf-2.log	Energy: -696177.1677372
Cl        -4.91457       -0.41347        0.32063
C         -3.27924        0.11457        0.04031
C         -3.00581        1.46966       -0.17279
C         -1.67192        1.81436       -0.38823
N         -0.66217        0.94405       -0.41106
C         -0.93500       -0.34131       -0.19550
N          0.09013       -1.28805       -0.22683
C          1.47639       -1.17494       -0.15838
O          1.87048        0.05103        0.15213
C          3.28610        0.42685        0.17816
C          3.90808        0.19554       -1.19957
C          3.22372        1.91682        0.50560
C          4.01060       -0.35044        1.27774
O          2.17918       -2.14657       -0.34201
C         -2.24574       -0.81313        0.03951
H         -3.80008        2.21561       -0.17183
H         -1.40782        2.86370       -0.56341
H         -0.19413       -2.25651       -0.31700
H          4.93648        0.58774       -1.20903
H          3.93591       -0.87309       -1.44656
H          3.32975        0.72660       -1.97101
H          2.63835        2.44857       -0.25831
H          4.23793        2.34162        0.54214
H          2.73843        2.07510        1.47999
H          3.50480       -0.20301        2.24436
H          4.03577       -1.42304        1.04915
H          5.04329        0.01937        1.37121
H         -2.44690       -1.86938        0.22292
