16
elec14_conf-0.log	Energy: -1830275.4183535
N         -3.26777       -1.40891        0.05151
C         -2.20822       -0.53551        0.00708
C         -0.87352       -1.00097        0.00807
C          0.14266       -0.05662        0.00246
Br         1.95082       -0.66716       -0.00090
C         -0.13156        1.32309        0.00009
C          0.93042        2.38521       -0.00435
C         -1.49612        1.64446       -0.00043
N         -2.50009        0.77031       -0.00145
H         -4.17333       -1.00241       -0.15099
H         -3.12547       -2.36575       -0.24239
H         -0.64701       -2.06764        0.01834
H          0.47537        3.38639       -0.00706
H          1.58404        2.30682        0.87971
H          1.58294        2.30124       -0.88873
H         -1.78196        2.70402       -0.00533
