11
elec38_conf-0.log	Energy: -404670.7681957
I         -1.60889       -0.11408        0.00015
C          0.49683       -0.22520       -0.00000
C          1.26414        0.94037       -0.00026
F          0.69178        2.14263       -0.00041
C          2.65875        0.84420       -0.00036
N          3.29931       -0.32197       -0.00022
C          2.56976       -1.43968        0.00003
C          1.17108       -1.44848        0.00014
H          3.24883        1.76776       -0.00056
H          3.11752       -2.38831        0.00014
H          0.62032       -2.39017        0.00034
