13
elec35_conf-1.log	Energy: -439434.0979107
N         -3.51494       -1.66795       -0.05256
C         -2.55728       -0.68331       -0.00674
C         -1.17818       -1.00395       -0.00842
C         -0.25691        0.03605       -0.00266
I          1.81996       -0.34301        0.00064
C         -0.72448        1.35421       -0.00050
F          0.11629        2.39412        0.00458
C         -2.09986        1.56949        0.00073
N         -2.99334        0.58297        0.00218
H         -3.26950       -2.60202        0.24670
H         -4.45976       -1.36354        0.14986
H         -0.84639       -2.04294       -0.01952
H         -2.47063        2.60095        0.00618
