11
elec25_conf-0.log	Energy: -342374.4442842
I          1.54692       -0.00446       -0.00003
C         -0.59784       -0.01445        0.00001
C         -1.27069        1.21589        0.00004
C         -2.66450        1.17746        0.00006
C         -3.31409       -0.06125        0.00006
C         -2.53182       -1.21663        0.00003
N         -1.19340       -1.18528        0.00001
H         -0.72276        2.15833        0.00004
H         -3.23712        2.10832        0.00009
H         -4.40357       -0.13042        0.00008
H         -2.99585       -2.20880        0.00003
