13
elec26_conf-1.log	Energy: -479049.3090359
Cl        -2.43793       -0.45105       -0.00001
C         -0.80414        0.12950       -0.00000
C         -0.49163        1.45822        0.00000
C          0.90250        1.79200        0.00001
C          1.87301        0.83465        0.00001
C          1.54453       -0.58670        0.00000
N          2.31392       -1.61452        0.00000
N          0.15404       -0.83213       -0.00000
H         -1.27412        2.21319        0.00000
H          1.18541        2.84793        0.00001
H          2.93094        1.10192        0.00001
H          3.29248       -1.32203        0.00000
H         -0.11120       -1.81264       -0.00000
