13
elec06_conf-0.log	Energy: -2094006.8406288
Br         2.52374       -0.32866        0.00366
C          0.59851       -0.22114       -0.00690
N         -0.06563       -1.34492       -0.00503
C         -1.39928       -1.34212       -0.00409
C         -2.09979       -0.13242       -0.00126
Cl        -3.84201       -0.13543        0.00634
C         -1.40574        1.07562       -0.00313
C          0.00173        1.06916       -0.00989
N          0.73396        2.22196       -0.05112
H         -1.92223       -2.30155       -0.00247
H         -1.95199        2.02068       -0.00409
H          0.27927        3.09528        0.17845
H          1.72728        2.15740        0.13685
