10
elec33_conf-0.log	Energy: -1780895.7692477
Br        -1.77826       -0.00660        0.00005
C          0.13025       -0.01158       -0.00000
N          0.74078       -1.17843       -0.00001
C          2.07914       -1.15384       -0.00004
N          2.84692       -0.06740       -0.00007
C          2.20832        1.10784       -0.00006
C          0.81756        1.20751       -0.00003
H          2.58488       -2.12613       -0.00005
H          2.82833        2.01165       -0.00009
H          0.30026        2.16661       -0.00002
