12
elec31_conf-0.log	Energy: -1815647.5834436
Br         2.18199       -0.01098       -0.00000
C          0.28940        0.02016       -0.00000
C         -0.41820        1.19005        0.00001
N         -1.76866        1.14423        0.00001
C         -2.51425       -0.05911        0.00000
N         -3.78662        0.03178        0.00001
N         -1.77007       -1.23943       -0.00000
C         -0.47430       -1.19787       -0.00000
H          0.05113        2.17534        0.00001
H          0.06649       -2.15392       -0.00001
H         -2.32060        1.99641        0.00001
H         -4.18511       -0.90918        0.00000
