12
elec11_conf-0.log	Energy: -3430603.1274567
Br        -2.51809       -1.06656       -0.00000
C         -0.97057        0.06950        0.00000
N          0.21007       -0.48473        0.00000
C          1.28022        0.29555        0.00000
Br         3.00664       -0.51099        0.00000
C          1.14888        1.68829       -0.00000
N         -0.05147        2.26024       -0.00000
C         -1.14482        1.48662        0.00000
N         -2.35925        2.08313        0.00001
H          2.02801        2.33901       -0.00000
H         -2.39927        3.09319       -0.00002
H         -3.20556        1.53198       -0.00002
