14
elec77_conf-0.log	Energy: -460694.5319103
I         -2.54468        0.00000        0.00000
C         -0.42747        0.00000        0.00000
C          0.26110       -1.21953        0.00000
C          1.65542       -1.21976        0.00000
C          2.33116        0.00000        0.00000
N          3.80731        0.00000        0.00000
O          4.36948        1.08279        0.00001
O          4.36948       -1.08279       -0.00001
C          1.65542        1.21976       -0.00000
C          0.26110        1.21953       -0.00000
H         -0.28427       -2.16398        0.00001
H          2.22672       -2.14735        0.00000
H          2.22672        2.14735       -0.00000
H         -0.28427        2.16398       -0.00001
