15
elec28_conf-0.log	Energy: -526897.7336217
Cl        -3.10359       -0.36416       -0.00010
C         -1.39717       -0.00647       -0.00004
C         -0.47121       -1.02225       -0.00006
C          0.90676       -0.69438       -0.00000
N          1.98212       -1.47093       -0.00001
C          3.04663       -0.62274        0.00006
C          2.65118        0.70446        0.00010
N          1.27211        0.67089        0.00006
C          0.33831        1.67395        0.00008
C         -0.99304        1.36227        0.00003
H         -0.75843       -2.07264       -0.00011
H          4.07121       -0.99508        0.00007
H          3.20621        1.63826        0.00015
H          0.71474        2.69747        0.00013
H         -1.74101        2.15396        0.00004
