26
elec27_conf-2.log	Energy: -708501.4517192
Cl         0.08232        2.37662       -0.01283
C          0.41272        0.67392       -0.08361
C         -0.59839       -0.27182       -0.21235
C         -2.04686        0.07776       -0.34530
O         -2.82394       -0.99512       -0.09203
C         -4.24644       -0.81341       -0.20497
C         -4.83407       -0.21422        1.06042
O         -2.48904        1.15809       -0.65053
C         -0.20891       -1.64872       -0.23000
N          1.02208       -2.08213       -0.14625
C          2.02015       -1.16504       -0.02178
C          1.77262        0.24746        0.01885
C          2.87321        1.13566        0.15646
C          4.15937        0.64755        0.24688
C          4.40484       -0.74713        0.20561
C          3.35759       -1.63316        0.07440
H         -4.63963       -1.82255       -0.39243
H         -4.45573       -0.17570       -1.07638
H         -4.58350       -0.83005        1.93789
H         -5.93112       -0.16282        0.97560
H         -4.45363        0.80498        1.21938
H         -1.00006       -2.39691       -0.32651
H          2.68214        2.20791        0.18777
H          4.99637        1.34153        0.35093
H          5.42995       -1.11785        0.27862
H          3.50994       -2.71292        0.03996
