26
elec27_conf-3.log	Energy: -708501.3600086
Cl         0.30099        2.12102       -0.30266
C         -0.29428        0.49265       -0.14993
C          0.54027       -0.61585       -0.20276
C          2.02877       -0.63569       -0.36029
O          2.63099        0.47629        0.07037
C          4.06467        0.53949       -0.04386
C          4.74617       -0.13678        1.13209
O          2.62017       -1.59639       -0.80005
C         -0.07531       -1.90528       -0.12955
N         -1.35622       -2.12033        0.01339
C         -2.18348       -1.04112        0.08287
C         -1.70435        0.30900       -0.00164
C         -2.64040        1.37591        0.06558
C         -3.98656        1.11857        0.21634
C         -4.45977       -0.21370        0.30291
C         -3.57666       -1.26954        0.23664
H          4.28865        1.61502       -0.07612
H          4.36687        0.07722       -0.99485
H          5.83681        0.00082        1.06205
H          4.53524       -1.21582        1.13387
H          4.40344        0.29605        2.08449
H          0.58741       -2.77408       -0.19739
H         -2.27595        2.40055       -0.00122
H         -4.69421        1.94891        0.26931
H         -5.52958       -0.40092        0.42132
H         -3.90575       -2.30795        0.29709
