26
elec27_conf-11.log	Energy: -708501.7504262
Cl        -0.56143       -1.90396       -0.32497
C          0.22980       -0.36664       -0.11797
C         -0.46640        0.83411       -0.07704
C         -1.94657        1.04021       -0.16773
O         -2.66443       -0.01928        0.21097
C         -4.09464        0.10320        0.13586
C         -4.68711       -1.23776        0.50985
O         -2.43721        2.09120       -0.51378
C          0.30278        2.03525        0.03591
N          1.60476        2.08868        0.13245
C          2.29783        0.91696        0.10890
C          1.65645       -0.35999       -0.02358
C          2.45906       -1.53217       -0.05314
C          3.83122       -1.44477        0.05022
C          4.46459       -0.18492        0.18404
C          3.71324        0.96995        0.21182
H         -4.37206        0.41358       -0.88397
H         -4.41794        0.90779        0.81607
H         -5.78602       -1.18945        0.46839
H         -4.38981       -1.52706        1.52927
H         -4.34555       -2.02142       -0.18317
H         -0.25273        2.97862        0.04293
H          1.97171       -2.50120       -0.15616
H          4.43506       -2.35468        0.02864
H          5.55290       -0.13256        0.26401
H          4.16705        1.95710        0.31100
