26
elec27_conf-12.log	Energy: -708501.6152732
Cl         0.49679        1.99138        0.06251
C         -0.23993        0.41480       -0.00808
C          0.50852       -0.75319       -0.03239
C          1.99994       -0.87351       -0.03311
O          2.61484        0.14059       -0.64922
C          4.05427        0.14267       -0.64431
C          4.59712        0.69955        0.65977
O          2.57407       -1.82837        0.43942
C         -0.20439       -1.99254       -0.01148
N         -1.50600       -2.10942       -0.00936
C         -2.25233       -0.97058       -0.00622
C         -1.66695        0.33996        0.00425
C         -2.52129        1.47497        0.02541
C         -3.89139        1.32019        0.02745
C         -4.47014        0.02739        0.01314
C         -3.66728       -1.09254       -0.00225
H          4.33009        0.77538       -1.49923
H          4.41363       -0.88184       -0.81979
H          5.69442        0.77895        0.60755
H          4.34061        0.03863        1.50042
H          4.18354        1.70052        0.85597
H          0.39383       -2.90968        0.00077
H         -2.07535        2.46913        0.03650
H         -4.53616        2.20174        0.04036
H         -5.55752       -0.07820        0.01594
H         -4.07854       -2.10302       -0.01018
