26
elec27_conf-8.log	Energy: -708501.7503446
Cl         0.56142       -1.90397       -0.32495
C         -0.22980       -0.36665       -0.11796
C          0.46640        0.83411       -0.07703
C          1.94657        1.04021       -0.16772
O          2.66444       -0.01930        0.21092
C          4.09464        0.10319        0.13581
C          4.68713       -1.23774        0.50985
O          2.43721        2.09122       -0.51372
C         -0.30278        2.03525        0.03591
N         -1.60476        2.08868        0.13244
C         -2.29783        0.91697        0.10889
C         -1.65645       -0.35999       -0.02358
C         -2.45907       -1.53217       -0.05313
C         -3.83122       -1.44477        0.05022
C         -4.46460       -0.18492        0.18403
C         -3.71324        0.96995        0.21181
H          4.41793        0.90782        0.81600
H          4.37207        0.41354       -0.88402
H          4.34559       -2.02143       -0.18314
H          4.38981       -1.52701        1.52928
H          5.78604       -1.18942        0.46841
H          0.25274        2.97861        0.04293
H         -1.97172       -2.50120       -0.15615
H         -4.43507       -2.35468        0.02864
H         -5.55290       -0.13255        0.26399
H         -4.16705        1.95711        0.31099
