26
elec27_conf-7.log	Energy: -708501.8013737
Cl        -0.38544        2.48737        0.10080
C         -0.51072        0.75989       -0.01274
C          0.60893       -0.05900       -0.10858
C          2.01172        0.45837       -0.16473
O          2.89794       -0.52471        0.08968
C          4.28714       -0.16553        0.02725
C          5.10075       -1.40425        0.33180
O          2.34324        1.59114       -0.41336
C          0.38403       -1.47091       -0.16987
N         -0.79032       -2.04609       -0.15287
C         -1.89340       -1.25407       -0.06023
C         -1.81472        0.17627        0.01665
C         -3.01671        0.92750        0.11649
C         -4.23980        0.29164        0.13672
C         -4.31848       -1.12078        0.05965
C         -3.16994       -1.87619       -0.03648
H          4.47670        0.64446        0.74973
H          4.50556        0.24105       -0.97343
H          4.86264       -1.79414        1.33319
H          6.17487       -1.16542        0.29941
H          4.90089       -2.19786       -0.40441
H          1.26051       -2.12011       -0.24243
H         -2.95385        2.01368        0.17554
H         -5.15602        0.88138        0.21257
H         -5.29549       -1.60941        0.07703
H         -3.19331       -2.96527       -0.09686
