26
elec27_conf-10.log	Energy: -708501.8013925
Cl        -0.38544        2.48737        0.10081
C         -0.51071        0.75989       -0.01274
C          0.60893       -0.05900       -0.10859
C          2.01172        0.45836       -0.16474
O          2.89794       -0.52471        0.08968
C          4.28714       -0.16553        0.02725
C          5.10075       -1.40424        0.33183
O          2.34324        1.59112       -0.41340
C          0.38403       -1.47092       -0.16989
N         -0.79033       -2.04609       -0.15289
C         -1.89341       -1.25407       -0.06023
C         -1.81472        0.17627        0.01665
C         -3.01671        0.92750        0.11650
C         -4.23980        0.29164        0.13673
C         -4.31848       -1.12078        0.05965
C         -3.16995       -1.87619       -0.03648
H          4.47669        0.64448        0.74970
H          4.50556        0.24102       -0.97344
H          4.90089       -2.19787       -0.40436
H          4.86263       -1.79410        1.33324
H          6.17487       -1.16542        0.29944
H          1.26051       -2.12012       -0.24245
H         -2.95385        2.01368        0.17555
H         -5.15602        0.88139        0.21259
H         -5.29549       -1.60940        0.07704
H         -3.19332       -2.96527       -0.09687
