26
elec27_conf-5.log	Energy: -708501.4515623
Cl        -0.08234        2.37663       -0.01283
C         -0.41273        0.67393       -0.08361
C          0.59839       -0.27181       -0.21233
C          2.04686        0.07779       -0.34527
O          2.82395       -0.99511       -0.09209
C          4.24645       -0.81338       -0.20503
C          4.83408       -0.21430        1.06041
O          2.48903        1.15814       -0.65043
C          0.20892       -1.64871       -0.22999
N         -1.02207       -2.08213       -0.14624
C         -2.02014       -1.16505       -0.02178
C         -1.77262        0.24746        0.01885
C         -2.87322        1.13564        0.15644
C         -4.15938        0.64752        0.24686
C         -4.40484       -0.74716        0.20560
C         -3.35758       -1.63318        0.07439
H          4.45572       -0.17560       -1.07638
H          4.63963       -1.82251       -0.39257
H          4.58352       -0.83020        1.93783
H          4.45364        0.80489        1.21945
H          5.93113       -0.16288        0.97558
H          1.00008       -2.39689       -0.32649
H         -2.68216        2.20790        0.18776
H         -4.99638        1.34150        0.35091
H         -5.42995       -1.11789        0.27860
H         -3.50992       -2.71294        0.03996
