16
elec09_conf-0.log	Energy: -839245.5987923
Cl         2.93340       -1.61433        0.00010
C          2.00857       -0.14181       -0.00007
C          0.58630       -0.18487        0.00000
C         -0.10299        1.07249       -0.00015
C         -1.51888        1.04332       -0.00008
C         -2.14881       -0.18639        0.00012
Cl        -3.89386       -0.25161        0.00021
N         -1.51223       -1.36654        0.00026
C         -0.19704       -1.36964        0.00020
N          0.54197        2.27063       -0.00034
C          1.85510        2.25454       -0.00040
C          2.64920        1.07685       -0.00027
H         -2.07145        1.98173       -0.00019
H          0.30304       -2.34304        0.00032
H          2.36162        3.22752       -0.00056
H          3.73763        1.13907       -0.00033
