17
elec16_conf-2.log	Energy: -587374.0202772
Cl        -0.67135        2.26339        0.00000
C          0.15769        0.73106        0.00000
N          1.47293        0.81301        0.00000
C          2.22253       -0.29752        0.00000
C          3.71180       -0.10234       -0.00000
C          1.63184       -1.56821        0.00000
C          0.24464       -1.65767       -0.00000
C         -0.54713       -0.49834       -0.00000
C         -2.03496       -0.61627       -0.00000
O         -2.42857       -1.91407        0.00000
O         -2.83339        0.28583       -0.00000
H          4.25295       -1.05831        0.00000
H          4.01332        0.48213       -0.88365
H          4.01332        0.48213        0.88365
H          2.24976       -2.46757        0.00000
H         -0.24977       -2.62864       -0.00000
H         -3.39991       -1.89675        0.00000
