17
elec16_conf-4.log	Energy: -587372.8020529
Cl        -0.76018        2.22362       -0.00000
C          0.13426        0.68668       -0.00000
N          1.43543        0.83851       -0.00000
C          2.23726       -0.23661       -0.00000
C          3.71586        0.02177        0.00000
C          1.69373       -1.52852       -0.00000
C          0.31200       -1.67430       -0.00000
C         -0.53568       -0.55460        0.00000
C         -2.02110       -0.86861        0.00000
O         -2.89720        0.13709        0.00000
O         -2.39762       -2.01365       -0.00000
H          3.99394        0.61708       -0.88409
H          3.99393        0.61706        0.88411
H          4.29488       -0.91147       -0.00001
H          2.34676       -2.40276       -0.00000
H         -0.16382       -2.65631       -0.00000
H         -2.45004        1.00293        0.00000
