16
elec69_conf-0.log	Energy: -823388.5067998
Cl        -3.97966       -0.05117        0.07017
C         -2.23614       -0.01539        0.00369
N         -1.60929       -1.17584       -0.01888
C         -0.27463       -1.17183       -0.06365
C          0.46037        0.01366       -0.07791
S          2.24518       -0.03431       -0.13467
N          2.67784        0.14666        1.48392
O          2.62495       -1.37708       -0.57299
O          2.69524        1.18187       -0.81227
C         -0.20643        1.24296       -0.07064
C         -1.59481        1.23488       -0.02734
H          0.23551       -2.13858       -0.10100
H          3.36108        0.89907        1.57106
H          3.02133       -0.73295        1.86913
H          0.35936        2.17542       -0.11229
H         -2.17734        2.15601       -0.02309
