16
elec69_conf-1.log	Energy: -823390.1994375
Cl        -3.97511       -0.06594        0.07353
C         -2.23287       -0.01728       -0.00349
N         -1.59780       -1.17403       -0.04130
C         -0.26428       -1.16083       -0.09302
C          0.46749        0.02886       -0.09226
S          2.26044       -0.01081       -0.13277
N          2.76519       -0.08433        1.45511
O          2.64501       -1.28305       -0.73343
O          2.69814        1.28928       -0.63099
C         -0.20976        1.25272       -0.07473
C         -1.59901        1.23621       -0.02760
H          0.24894       -2.12554       -0.15170
H          2.53898       -0.95689        1.92756
H          2.57091        0.75453        1.99737
H          0.35146        2.18834       -0.11618
H         -2.18682        2.15403       -0.01747
