11
elec78_conf-0.log	Energy: -342373.2580090
I          1.54753        0.00332        0.00009
C         -0.57287        0.01459       -0.00003
C         -1.27910        1.21876       -0.00006
C         -2.67425        1.15844       -0.00014
C         -3.29197       -0.09529       -0.00019
N         -2.61107       -1.24344       -0.00016
C         -1.27914       -1.19604       -0.00009
H         -0.75725        2.17736       -0.00002
H         -3.27158        2.07295       -0.00016
H         -4.38495       -0.17369       -0.00025
H         -0.74359       -2.15125       -0.00007
