28
elec68_conf-1.log	Energy: -751536.1099071
Cl         3.62080       -2.70634       -0.00002
C          2.59421       -1.28518       -0.00001
N          3.18832       -0.12811       -0.00000
C          2.36275        0.95692        0.00001
C          0.92917        0.84277        0.00001
C          0.15282        2.02966        0.00002
C          0.76404        3.26924        0.00004
C          2.17225        3.37932        0.00004
C          2.95626        2.24501        0.00003
C          0.43361       -0.51449       -0.00000
N         -0.86769       -0.96980        0.00002
C         -2.17055       -0.48559       -0.00001
N         -2.54947        0.78551       -0.00015
N         -3.89840        0.74234       -0.00012
C         -4.40259       -0.51994        0.00002
C         -5.86690       -0.80983        0.00007
C         -3.30096       -1.35853        0.00010
N          1.28625       -1.54124       -0.00001
H         -0.93229        1.95238        0.00000
H          0.14905        4.17215        0.00005
H          2.64099        4.36672        0.00006
H          4.04615        2.28996        0.00003
H         -0.83251       -1.98543        0.00004
H         -4.41508        1.61240       -0.00021
H         -6.36279       -0.38865        0.89021
H         -6.36280       -0.38887       -0.89017
H         -6.03827       -1.89419        0.00020
H         -3.30395       -2.44577        0.00022
