28
elec68_conf-2.log	Energy: -751538.8456978
Cl        -4.08831       -1.96991        0.40531
C         -2.73586       -0.88211        0.17510
N         -2.95759        0.38429        0.38571
C         -1.91312        1.22090        0.12151
C         -0.64321        0.73200       -0.31996
C          0.35209        1.65711       -0.72380
C          0.12486        3.01579       -0.62097
C         -1.10446        3.49865       -0.11322
C         -2.10704        2.62156        0.24513
C         -0.53030       -0.70660       -0.37773
N          0.62392       -1.37728       -0.68089
C          1.94548       -1.04079       -0.36614
N          2.93292       -1.59701       -1.05970
N          4.05321       -1.14706       -0.46422
C          3.81858       -0.30972        0.58425
C          4.91171        0.32073        1.38204
C          2.43862       -0.22152        0.68842
N         -1.59155       -1.47891       -0.17660
H          1.29606        1.29667       -1.12805
H          0.89519        3.72118       -0.94005
H         -1.26648        4.57588       -0.02642
H         -3.07822        2.96445        0.60481
H          0.46375       -2.36392       -0.86777
H          4.95242       -1.44884       -0.81816
H          5.60088       -0.43489        1.79382
H          5.50843        1.02053        0.77307
H          4.48818        0.88480        2.22345
H          1.87057        0.34840        1.41711
