28
elec68_conf-5.log	Energy: -751544.5500161
Cl         0.62634        3.48489       -0.00001
C          1.09782        1.79606       -0.00000
N          2.37290        1.54067        0.00001
C          2.71252        0.21593        0.00001
C          1.72600       -0.81471       -0.00000
C          2.13317       -2.16890       -0.00001
C          3.47669       -2.49740       -0.00001
C          4.45483       -1.47731        0.00001
C          4.08298       -0.14722        0.00001
C          0.35203       -0.35462       -0.00000
N         -0.66800       -1.24943        0.00000
C         -2.04070       -0.99862        0.00000
N         -2.84670       -2.05828       -0.00001
N         -4.08446       -1.52962       -0.00000
C         -4.09552       -0.16779        0.00000
C         -5.35493        0.63393        0.00001
C         -2.76386        0.22458        0.00001
N          0.06883        0.94008       -0.00001
H          1.39430       -2.97411       -0.00002
H          3.78224       -3.54573       -0.00001
H          5.51377       -1.74656        0.00001
H          4.81710        0.65981        0.00002
H         -0.44169       -2.23601       -0.00000
H         -4.88407       -2.15006       -0.00002
H         -5.97149        0.42474        0.89026
H         -5.11649        1.70563        0.00004
H         -5.97147        0.42478       -0.89027
H         -2.35408        1.22690        0.00001
