28
elec68_conf-4.log	Energy: -751538.8456915
Cl         4.08831       -1.96991        0.40531
C          2.73586       -0.88211        0.17510
N          2.95758        0.38429        0.38572
C          1.91312        1.22090        0.12151
C          0.64321        0.73200       -0.31996
C         -0.35208        1.65711       -0.72380
C         -0.12486        3.01579       -0.62097
C          1.10446        3.49865       -0.11322
C          2.10704        2.62156        0.24513
C          0.53030       -0.70660       -0.37773
N         -0.62392       -1.37728       -0.68089
C         -1.94548       -1.04079       -0.36614
N         -2.93292       -1.59701       -1.05970
N         -4.05321       -1.14706       -0.46421
C         -3.81858       -0.30972        0.58425
C         -4.91171        0.32073        1.38205
C         -2.43862       -0.22152        0.68842
N          1.59155       -1.47891       -0.17661
H         -1.29606        1.29668       -1.12806
H         -0.89519        3.72119       -0.94005
H          1.26649        4.57588       -0.02642
H          3.07822        2.96445        0.60481
H         -0.46375       -2.36392       -0.86777
H         -4.95242       -1.44884       -0.81815
H         -4.48818        0.88482        2.22343
H         -5.50845        1.02050        0.77306
H         -5.60086       -0.43490        1.79385
H         -1.87056        0.34841        1.41710
