33
elec13_conf-69.log	Energy: -2267107.9045954
N          3.93309        1.67956       -0.10597
C          2.58803        1.93639       -0.01003
N          1.79080        0.88470       -0.43820
C          0.44285        1.06856       -0.30695
C         -0.10762        2.25556        0.14412
N         -1.48491        2.13447        0.19205
C         -1.73563        0.93050       -0.20377
Br        -3.44658        0.14053       -0.34392
N         -0.59777        0.19513       -0.53767
C         -0.51657       -1.22312       -0.89020
O          0.82138       -1.54009       -1.16981
C          1.38945       -2.15947       -0.00818
C          2.73485       -2.72008       -0.37652
O          3.59188       -1.61405       -0.65150
C          0.27376       -3.11306        0.42768
O          0.41088       -3.65122        1.70125
C         -0.95540       -2.17537        0.27886
O         -1.08332       -1.52417        1.51731
N          2.14514        3.07133        0.42390
C          0.77285        3.38751        0.49647
O          0.38220        4.48249        0.84266
H          4.22427        0.71095       -0.01228
H          4.51427        2.37396        0.34910
H          2.18813        0.06786       -0.89446
H         -1.11700       -1.39175       -1.79655
H          1.53408       -1.40986        0.79281
H          3.10741       -3.32568        0.46952
H          2.62726       -3.37261       -1.26133
H          4.34415       -1.91818       -1.17407
H          0.20395       -3.93687       -0.30292
H          0.02028       -3.00065        2.30991
H         -1.87348       -2.72037        0.01240
H         -1.95110       -1.09970        1.57801
