33
elec13_conf-73.log	Energy: -2267103.8739012
N          3.99371        2.86170       -0.12831
C          3.48446        1.58795       -0.19233
N          2.08628        1.54325       -0.26810
C          1.56824        0.27059       -0.21282
C          2.32937       -0.87348       -0.11549
N          1.49047       -1.96980       -0.08824
C          0.28841       -1.49776       -0.19432
Br        -1.24509       -2.58340       -0.02684
N          0.24399       -0.09859       -0.28205
C         -0.81514        0.85580       -0.69618
O         -1.98142        0.21262       -1.07449
C         -3.03716        0.39095       -0.10708
C         -4.16891        1.18200       -0.73689
O         -3.75030        2.51453       -0.94000
C         -2.38263        1.06262        1.10361
O         -1.88371        0.16464        2.07884
C         -1.20914        1.81946        0.45654
O         -0.18124        2.11775        1.35586
N          4.26522        0.56156       -0.14772
C          3.79900       -0.77006       -0.05787
O          4.56019       -1.70713        0.04378
H          3.50696        3.59363       -0.63379
H          5.00603        2.89347       -0.18120
H          1.54791        2.26240        0.22033
H         -0.39996        1.39921       -1.56054
H         -3.42228       -0.60566        0.16310
H         -4.43414        0.68344       -1.68785
H         -5.04777        1.12306       -0.06387
H         -4.43100        2.98832       -1.43236
H         -3.06854        1.75164        1.61596
H         -1.70130       -0.70038        1.67716
H         -1.57992        2.74796        0.00438
H         -0.20274        1.40729        2.02420
