33
elec13_conf-104.log	Energy: -2267109.8281127
N          2.74872       -3.42143       -0.27457
C          2.63917       -2.05655       -0.21179
N          1.33580       -1.58149       -0.16147
C          1.21096       -0.22468       -0.11781
C          2.28676        0.63915       -0.14647
N          1.82790        1.94634       -0.10070
C          0.54042        1.86604       -0.06107
Br        -0.65301        3.31721        0.04504
N          0.06395        0.54100       -0.05341
C         -1.30196        0.07796       -0.12498
O         -1.42050       -0.84886       -1.18344
C         -2.31463       -1.89832       -0.81737
C         -3.74477       -1.56999       -1.21225
O         -4.18543       -0.46979       -0.44038
C         -2.09897       -2.08486        0.68592
O         -0.96372       -2.91086        0.88573
C         -1.79165       -0.65032        1.17530
O         -0.83726       -0.73046        2.20771
N          3.69667       -1.31094       -0.23639
C          3.65755        0.09754       -0.21606
O          4.66647        0.77048       -0.24462
H          1.98916       -4.00408        0.05504
H          3.68975       -3.77407       -0.14939
H          0.52174       -2.19389       -0.06576
H         -1.92687        0.96168       -0.30897
H         -1.99662       -2.80407       -1.35618
H         -3.75189       -1.34073       -2.29345
H         -4.37356       -2.46786       -1.04702
H         -5.03058       -0.15482       -0.78250
H         -2.98263       -2.51401        1.18686
H         -0.56333       -2.58699        1.71516
H         -2.71534       -0.16523        1.52032
H         -0.28939        0.06757        2.21478
