33
elec13_conf-145.log	Energy: -2267108.7743800
N          2.98357       -3.25945       -0.09619
C          2.78743       -1.89385       -0.12085
N          1.46116       -1.50586       -0.05656
C          1.24562       -0.16189       -0.04483
C          2.26116        0.76667       -0.15342
N          1.72291        2.04416       -0.11851
C          0.44873        1.88345       -0.00549
Br        -0.81873        3.27156        0.11231
N          0.05556        0.53172        0.06496
C         -1.28368        0.01086        0.03292
O         -1.51319       -0.65716       -1.19671
C         -2.37586       -1.76277       -0.98147
C         -3.84157       -1.37589       -1.12303
O         -4.19356       -0.50490       -0.06722
C         -1.98202       -2.30371        0.40541
O         -0.83095       -3.13464        0.32189
C         -1.61577       -1.01895        1.17417
O         -0.57508       -1.26100        2.07581
N          3.79315       -1.08782       -0.23371
C          3.65663        0.31473       -0.29646
O          4.61322        1.04808       -0.43847
H          2.34457       -3.80407        0.47436
H          3.96135       -3.50535        0.01750
H          0.69600       -2.17566        0.06818
H         -1.95283        0.87668        0.11786
H         -2.14947       -2.50922       -1.76160
H         -3.96460       -0.89383       -2.10988
H         -4.45531       -2.30004       -1.11439
H         -5.04914       -0.10102       -0.25560
H         -2.80666       -2.84531        0.89724
H         -1.03942       -3.89384       -0.23814
H         -2.52641       -0.66293        1.67966
H         -0.32441       -0.42413        2.48981
