33
elec13_conf-47.log	Energy: -2267103.5438626
N         -4.14985       -2.78454       -0.21728
C         -3.60358       -1.52517       -0.22199
N         -2.20662       -1.51753       -0.34047
C         -1.64755       -0.26610       -0.22730
C         -2.36911        0.89178       -0.03968
N         -1.49703        1.96045        0.01858
C         -0.31398        1.46285       -0.15614
Br         1.25465        2.49535        0.01337
N         -0.31461        0.06892       -0.32178
C          0.69591       -0.88982       -0.82812
O          1.87530       -0.26941       -1.21312
C          2.94047       -0.51309       -0.27147
C          4.03414       -1.32636       -0.96802
O          5.12705       -1.57444       -0.11904
C          2.30779       -1.23517        0.91369
O          1.84193       -0.39605        1.95487
C          1.10111       -1.92986        0.25322
O          0.09608       -2.26696        1.16120
N         -4.34936       -0.48071       -0.09052
C         -3.83901        0.82854        0.06233
O         -4.56571        1.78011        0.24523
H         -3.70264       -3.49975       -0.77990
H         -5.16392       -2.78441       -0.23567
H         -1.67864       -2.28082        0.08815
H          0.23298       -1.36759       -1.70698
H          3.35340        0.46120        0.04042
H          3.63026       -2.30830       -1.26308
H          4.31588       -0.80167       -1.89984
H          5.60650       -0.74784        0.02507
H          3.01150       -1.95104        1.36047
H          1.68046        0.50000        1.61797
H          1.42423       -2.84562       -0.26614
H          0.16504       -1.60931        1.87979
