33
elec13_conf-0.log	Energy: -2267110.2368096
N          2.76153       -3.41432       -0.20276
C          2.64649       -2.04435       -0.23421
N          1.33938       -1.57791       -0.21560
C          1.20996       -0.22120       -0.15316
C          2.28389        0.64676       -0.14434
N          1.82044        1.95146       -0.08974
C          0.53219        1.86497       -0.07869
Br        -0.66737        3.31219        0.02999
N          0.06177        0.54059       -0.10943
C         -1.30218        0.07379       -0.14102
O         -1.44903       -0.85981       -1.19053
C         -2.33327       -1.90505       -0.79330
C         -3.77393       -1.57848       -1.15047
O         -4.19448       -0.47649       -0.36988
C         -2.07831       -2.08352        0.70489
O         -0.94700       -2.92247        0.87027
C         -1.75243       -0.64936        1.17757
O         -0.76480       -0.73762        2.17502
N          3.70191       -1.29667       -0.24103
C          3.65740        0.11159       -0.17640
O          4.66549        0.78604       -0.15485
H          2.02537       -3.96775       -0.62668
H          3.70662       -3.74063       -0.37108
H          0.54206       -2.19304       -0.02536
H         -1.93533        0.95415       -0.31316
H         -2.03139       -2.81559       -1.33330
H         -3.81011       -1.35194       -2.23169
H         -4.39785       -2.47605       -0.96603
H         -5.04856       -0.16278       -0.69028
H         -2.95090       -2.50417        1.23178
H         -0.54444       -2.66165        1.71841
H         -2.66501       -0.16113        1.54836
H         -0.34792        0.12384        2.31379
