33
elec13_conf-149.log	Energy: -2267106.8852439
N         -3.95346       -1.59221       -0.22737
C         -2.60246       -1.88184       -0.11237
N         -1.77438       -0.85533       -0.52716
C         -0.43494       -1.04553       -0.31472
C          0.07881       -2.21819        0.20627
N          1.45889       -2.12339        0.27429
C          1.74535       -0.94303       -0.16704
Br         3.46820       -0.21792       -0.37271
N          0.62680       -0.20251       -0.55853
C          0.56646        1.21995       -0.88384
O         -0.77251        1.55364       -1.17450
C         -1.34423        2.16719       -0.01658
C         -2.72036        2.68101       -0.37303
O         -3.59538        1.59942       -0.65838
C         -0.23287        3.11511        0.40753
O         -0.43504        3.57558        1.72454
C          0.98751        2.15145        0.30254
O          1.09838        1.42190        1.48650
N         -2.20093       -2.99563        0.40007
C         -0.83322       -3.30614        0.60219
O         -0.48682       -4.37257        1.06348
H         -4.23130       -1.04539       -1.03815
H         -4.53045       -2.41285       -0.06971
H         -2.13809       -0.00951       -0.95822
H          1.17780        1.40383       -1.77919
H         -1.45469        1.42366        0.79742
H         -3.09422        3.31455        0.45084
H         -2.66303        3.29371       -1.28576
H         -3.84364        1.16112        0.16943
H         -0.14762        3.94532       -0.31485
H          0.03788        4.40824        1.85097
H          1.92742        2.67829        0.05913
H          0.74530        1.98611        2.19500
