33
elec13_conf-84.log	Energy: -2267107.0833110
N         -0.23732        4.38976       -0.35508
C         -0.94850        3.22974       -0.18304
N         -0.25621        2.06406       -0.49505
C         -0.94533        0.89831       -0.30501
C         -2.24225        0.85955        0.17257
N         -2.66624       -0.45488        0.23923
C         -1.66708       -1.16274       -0.17779
Br        -1.63148       -3.04028       -0.33852
N         -0.55430       -0.39700       -0.54964
C          0.79695       -0.89785       -0.77367
O          1.63627        0.16013       -1.19952
C          2.68591        0.37561       -0.24544
C          3.94113        0.91585       -0.90933
O          4.90704        1.21136        0.06610
C          2.87483       -1.00296        0.39888
O          3.59872       -0.98702        1.59502
C          1.42304       -1.47341        0.53025
O          0.92699       -0.85053        1.69093
N         -2.15402        3.26345        0.28126
C         -2.93355        2.11412        0.52423
O         -4.05738        2.18242        0.97318
H          0.51253        4.42345       -1.03493
H         -0.79815        5.22954       -0.26785
H          0.65589        2.03973       -0.93504
H          0.74760       -1.66587       -1.56143
H          2.35294        1.08935        0.53211
H          4.29326        0.17853       -1.66117
H          3.71535        1.84724       -1.45491
H          4.92257        0.48517        0.71024
H          3.41092       -1.65468       -0.31160
H          2.97877       -0.70353        2.28840
H          1.31863       -2.56800        0.57493
H          0.06430       -1.21712        1.92866
