33
elec13_conf-58.log	Energy: -2267109.3641385
N          2.91100       -3.30698       -0.24500
C          2.74910       -1.93705       -0.18067
N          1.42374       -1.52274       -0.12030
C          1.23637       -0.16732       -0.09544
C          2.27540        0.73975       -0.12332
N          1.76116        2.02446       -0.06527
C          0.47855        1.88356       -0.01109
Br        -0.76828        3.28903        0.08037
N          0.06158        0.54261       -0.01950
C         -1.27902        0.03054       -0.01739
O         -1.49348       -0.72572       -1.20255
C         -2.39396       -1.79026       -0.92936
C         -3.84641       -1.37364       -1.11506
O         -4.19264       -0.44464       -0.10877
C         -2.03421       -2.24075        0.49361
O         -0.88137       -3.08620        0.47934
C         -1.63158       -0.91943        1.19153
O         -0.65145       -1.04980        2.16858
N          3.76950       -1.14890       -0.20996
C          3.66484        0.26256       -0.22112
O          4.64485        0.97242       -0.29298
H          2.26282       -3.87012        0.29639
H          3.88295       -3.58186       -0.14531
H          0.64917       -2.17356       -0.25191
H         -1.94552        0.90159        0.00047
H         -2.17616       -2.59269       -1.65342
H         -3.94089       -0.93892       -2.12679
H         -4.48333       -2.28125       -1.07218
H         -5.03289       -0.02602       -0.33090
H         -2.86497       -2.74057        1.01488
H         -1.14593       -3.98063        0.23008
H         -2.52381       -0.50287        1.67298
H         -0.00226       -1.70425        1.87372
