33
elec13_conf-159.log	Energy: -2267108.2103870
N          2.59804       -3.70575       -0.37385
C          2.59779       -2.33134       -0.29821
N          1.34033       -1.74611       -0.32343
C          1.32016       -0.38588       -0.19940
C          2.46332        0.37973       -0.07075
N          2.11233        1.71667        0.00653
C          0.82242        1.74421       -0.07872
Br        -0.26062        3.28014        0.00342
N          0.24643        0.47348       -0.21512
C         -1.15549        0.13081       -0.16195
O         -1.36203       -1.06045       -0.89520
C         -2.58255       -1.66793       -0.43868
C         -3.66989       -1.47571       -1.47915
O         -3.94018       -0.09155       -1.56927
C         -2.92802       -1.01645        0.93585
O         -3.26344       -1.92949        1.93660
C         -1.66127       -0.20226        1.24997
O         -0.77737       -1.08901        1.91046
N          3.70737       -1.68022       -0.17344
C          3.78172       -0.27839       -0.02270
O          4.83989        0.29506        0.12367
H          1.87658       -4.15293       -0.92899
H          3.52889       -4.08969       -0.49776
H          0.46850       -2.26181       -0.33808
H         -1.73122        0.96767       -0.58843
H         -2.39842       -2.74449       -0.29376
H         -3.31613       -1.88725       -2.44298
H         -4.56025       -2.05575       -1.16267
H         -4.56292        0.06721       -2.28825
H         -3.77467       -0.32896        0.79913
H         -2.42302       -2.21042        2.33458
H         -1.86066        0.70231        1.84634
H         -0.06063       -0.59441        2.32863
