33
elec13_conf-23.log	Energy: -2267108.5469580
N          1.18743       -4.17040       -0.13687
C          1.63746       -2.87426       -0.20058
N          0.63133       -1.91580       -0.16657
C          1.06518       -0.62260       -0.14115
C          2.39859       -0.26680       -0.17759
N          2.50980        1.11378       -0.15639
C          1.30124        1.56347       -0.12363
Br         0.80242        3.37657       -0.03211
N          0.32760        0.54511       -0.10184
C         -1.10842        0.68994       -0.14309
O         -1.64639       -0.14496       -1.14086
C         -2.84854       -0.76643       -0.68188
C         -4.07311        0.07227       -1.06745
O         -5.27963       -0.60736       -0.82245
C         -2.65559       -0.93766        0.82064
O         -1.91348       -2.11423        1.07169
C         -1.82138        0.30658        1.20117
O         -0.96498       -0.03404        2.25890
N          2.90445       -2.61951       -0.24858
C          3.43638       -1.31472       -0.21737
O          4.63056       -1.10492       -0.22831
H          0.27686       -4.38546       -0.52720
H          1.91286       -4.85773       -0.30808
H         -0.33526       -2.15030        0.08216
H         -1.29373        1.74934       -0.37497
H         -2.92935       -1.74919       -1.16918
H         -4.03625        1.06063       -0.56580
H         -4.01214        0.26405       -2.14924
H         -5.50379       -0.53627        0.11330
H         -3.61729       -0.97472        1.36222
H         -1.43268       -1.95246        1.90450
H         -2.48747        1.13784        1.49108
H         -0.15038        0.48723        2.21062
