33
elec13_conf-42.log	Energy: -2267109.7976408
N          2.18371       -3.76260       -0.26919
C          2.27734       -2.39800       -0.24796
N          1.06291       -1.73471       -0.11432
C          1.14051       -0.37399       -0.10597
C          2.32411        0.32074       -0.24570
N          2.06704        1.68226       -0.21174
C          0.79037        1.79779       -0.07404
Br        -0.16405        3.41306        0.07382
N          0.12516        0.55671        0.01642
C         -1.29535        0.31122        0.05243
O         -1.64437       -0.61209       -0.95818
C         -2.62891       -1.53853       -0.46816
C         -4.02319       -0.99912       -0.77682
O         -4.15266       -0.71252       -2.14021
C         -2.32082       -1.69546        1.01385
O         -1.28946       -2.64979        1.18455
C         -1.80456       -0.29081        1.40832
O         -0.82339       -0.43519        2.40148
N          3.42579       -1.81601       -0.37883
C          3.59326       -0.41817       -0.39837
O          4.68229        0.10071       -0.52134
H          1.36168       -4.22869        0.09234
H          3.06672       -4.25506       -0.21885
H          0.18483       -2.21817        0.09128
H         -1.77254        1.28632       -0.12446
H         -2.46968       -2.48166       -1.01097
H         -4.77653       -1.75895       -0.51252
H         -4.22813       -0.10913       -0.14112
H         -3.35233       -0.23226       -2.40205
H         -3.21317       -1.98506        1.59565
H         -0.81113       -2.36856        1.98720
H         -2.63992        0.33020        1.77424
H         -0.15624        0.26151        2.31345
