33
elec13_conf-10.log	Energy: -2267109.7975969
N          2.18370       -3.76260       -0.26920
C          2.27733       -2.39801       -0.24796
N          1.06291       -1.73471       -0.11433
C          1.14051       -0.37399       -0.10597
C          2.32410        0.32074       -0.24570
N          2.06704        1.68226       -0.21174
C          0.79038        1.79779       -0.07404
Br        -0.16404        3.41306        0.07382
N          0.12516        0.55671        0.01641
C         -1.29535        0.31122        0.05243
O         -1.64438       -0.61209       -0.95818
C         -2.62891       -1.53853       -0.46816
C         -4.02319       -0.99912       -0.77681
O         -4.15266       -0.71251       -2.14020
C         -2.32082       -1.69546        1.01385
O         -1.28946       -2.64979        1.18455
C         -1.80456       -0.29081        1.40832
O         -0.82339       -0.43519        2.40147
N          3.42578       -1.81601       -0.37883
C          3.59326       -0.41818       -0.39837
O          4.68229        0.10070       -0.52134
H          1.36168       -4.22869        0.09235
H          3.06671       -4.25506       -0.21884
H          0.18482       -2.21817        0.09126
H         -1.77254        1.28632       -0.12445
H         -2.46968       -2.48166       -1.01097
H         -4.77653       -1.75895       -0.51253
H         -4.22814       -0.10914       -0.14111
H         -3.35233       -0.23225       -2.40204
H         -3.21316       -1.98506        1.59565
H         -0.81113       -2.36856        1.98719
H         -2.63991        0.33020        1.77424
H         -0.15623        0.26150        2.31344
