33
elec13_conf-14.log	Energy: -2267106.7918328
N         -4.16254       -1.07296       -0.19127
C         -2.86447       -1.53454       -0.10255
N         -1.91377       -0.61841       -0.51930
C         -0.60958       -0.98143       -0.32301
C         -0.24909       -2.21739        0.18459
N          1.12998       -2.30002        0.25526
C          1.56278       -1.16196       -0.17629
Br         3.37697       -0.65862       -0.33861
N          0.55260       -0.27703       -0.55549
C          0.67521        1.13182       -0.94415
O         -0.61376        1.63855       -1.16406
C         -1.02666        2.32930        0.02341
C         -2.33983        3.01729       -0.26116
O         -3.36513        2.05804       -0.49688
C          0.22587        3.14046        0.36210
O          0.24064        3.71947        1.62503
C          1.30839        2.03943        0.17342
O          1.41732        1.40837        1.42407
N         -2.60537       -2.70164        0.38634
C         -1.29157       -3.18736        0.57170
O         -1.07537       -4.29521        1.01398
H         -4.37754       -0.42265       -0.94120
H         -4.85039       -1.80532       -0.04926
H         -2.17143        0.29091       -0.89656
H          1.24376        1.19000       -1.88427
H         -1.18421        1.60534        0.84838
H         -2.58397        3.69156        0.57800
H         -2.25107        3.62089       -1.17724
H         -3.64915        1.68503        0.35044
H          0.35583        3.92997       -0.39718
H          0.58593        3.03796        2.22725
H          2.27510        2.44616       -0.15954
H          2.23110        0.88480        1.45819
