33
elec13_conf-110.log	Energy: -2267107.4222916
N         -0.24354        4.34652       -0.28516
C         -0.96910        3.19114       -0.09455
N         -0.24792        2.02049       -0.31418
C         -0.97254        0.86261       -0.20888
C         -2.31677        0.83432        0.10557
N         -2.75562       -0.47844        0.12646
C         -1.72020       -1.19313       -0.16583
Br        -1.66878       -3.07082       -0.29637
N         -0.56719       -0.43556       -0.40370
C          0.78374       -0.93411       -0.54939
O          1.60095        0.06136       -1.15494
C          2.74891        0.32782       -0.34839
C          3.95544        0.68150       -1.20340
O          5.01986        1.11052       -0.39145
C          2.91327       -0.94281        0.48508
O          3.69803       -0.67186        1.63112
C          1.45076       -1.28656        0.79769
O          0.96011       -0.43923        1.79780
N         -2.21698        3.23931        0.22911
C         -3.04352        2.09601        0.32905
O         -4.22493        2.18439        0.58463
H          0.73201        4.33825       -0.00594
H         -0.75455        5.17674       -0.00354
H          0.61595        2.01372       -0.84478
H          0.73863       -1.82090       -1.20069
H          2.54598        1.16690        0.34382
H          4.21830       -0.19220       -1.83580
H          3.69710        1.50603       -1.88717
H          5.06236        0.53378        0.38595
H          3.36820       -1.73440       -0.13859
H          4.01287       -1.50509        2.00811
H          1.29028       -2.35241        1.04422
H          1.68687       -0.28014        2.42069
