33
elec13_conf-79.log	Energy: -2267108.4123760
N          3.47148        2.44547       -0.15161
C          2.10394        2.41178       -0.01156
N          1.53679        1.20497       -0.39420
C          0.17622        1.12170       -0.26494
C         -0.60157        2.17922        0.16741
N         -1.93022        1.78955        0.19854
C         -1.93569        0.55614       -0.18653
Br        -3.44850       -0.54675       -0.38166
N         -0.66885        0.06124       -0.50331
C         -0.30410       -1.31971       -0.78643
O          1.05521       -1.36328       -1.16387
C          1.82261       -1.85808       -0.06490
C          3.21706       -2.15358       -0.54812
O          3.82483       -0.89772       -0.82856
C          0.94151       -2.98115        0.46183
O          1.33578       -3.36572        1.75926
C         -0.43795       -2.26293        0.45114
O         -0.57860       -1.51212        1.61934
N          1.44420        3.43656        0.41769
C          0.03436        3.46598        0.50744
O         -0.56244        4.46400        0.85362
H          3.96712        1.56473       -0.05263
H          3.90302        3.25573        0.27779
H          2.07371        0.50917       -0.90404
H         -0.91650       -1.67356       -1.62861
H          1.89542       -1.09396        0.73125
H          3.75964       -2.70176        0.24409
H          3.16452       -2.78832       -1.45090
H          4.57617       -1.02960       -1.41958
H          0.94896       -3.83105       -0.24335
H          1.01581       -4.25895        1.94034
H         -1.28211       -2.96203        0.31210
H         -0.07845       -1.97614        2.31136
