33
elec13_conf-28.log	Energy: -2267108.4635494
N          1.18647       -4.16711       -0.20637
C          1.63602       -2.87527       -0.18308
N          0.63463       -1.91295       -0.12739
C          1.06811       -0.62069       -0.11712
C          2.39972       -0.26586       -0.18325
N          2.51082        1.11542       -0.16581
C          1.30412        1.56610       -0.10816
Br         0.80597        3.37875       -0.01662
N          0.32965        0.54704       -0.05847
C         -1.10662        0.68855       -0.12001
O         -1.62602       -0.13903       -1.13403
C         -2.83941       -0.75948       -0.70310
C         -4.05294        0.09084       -1.09823
O         -5.26696       -0.58348       -0.87633
C         -2.67134       -0.94902        0.80019
O         -1.93120       -2.12675        1.05500
C         -1.83917        0.28929        1.20869
O         -0.99465       -0.06165        2.27403
N          2.90332       -2.61959       -0.24337
C          3.43503       -1.31598       -0.25462
O          4.62800       -1.10509       -0.30944
H          0.25006       -4.39282        0.10324
H          1.90318       -4.87382       -0.09877
H         -0.34983       -2.14297        0.03027
H         -1.29144        1.74976       -0.34368
H         -2.91654       -1.73533       -1.20461
H         -4.01725        1.07425       -0.58695
H         -3.97512        0.29222       -2.17720
H         -5.50847       -0.51181        0.05499
H         -3.64165       -0.99095        1.32562
H         -1.43758       -1.94429        1.87716
H         -2.50620        1.11775        1.50279
H         -0.14677        0.39928        2.18709
