33
elec13_conf-183.log	Energy: -2267104.6485742
N          3.53785       -2.61069        0.37258
C          3.03972       -1.37815        0.03598
N          1.68555       -1.21165        0.37599
C          1.20331        0.06650        0.17788
C          1.95687        1.08458       -0.36001
N          1.20163        2.24187       -0.41420
C          0.04761        1.92341        0.06983
Br        -1.39641        3.10823        0.27533
N         -0.04916        0.57609        0.47087
C         -1.32888       -0.06143        0.77864
O         -2.09322       -0.25871       -0.38433
C         -1.70947       -1.49848       -0.99187
C         -2.86113       -1.94254       -1.87700
O         -4.04238       -2.09428       -1.12847
C         -1.39876       -2.44814        0.18348
O         -0.27326       -3.26160       -0.00745
C         -1.30072       -1.47181        1.40772
O         -0.20671       -1.69510        2.26673
N          3.78502       -0.48740       -0.51923
C          3.35691        0.83970       -0.75637
O          4.09284        1.66787       -1.24372
H          2.90938       -3.40586        0.39078
H          4.47339       -2.78819        0.02446
H          1.31809       -1.67745        1.21375
H         -1.87430        0.65429        1.40358
H         -0.79408       -1.35576       -1.59896
H         -2.98163       -1.21841       -2.70547
H         -2.61325       -2.92092       -2.31770
H         -4.21680       -1.23468       -0.71801
H         -2.25171       -3.12290        0.33685
H          0.45743       -2.68835       -0.29597
H         -2.24371       -1.54213        1.97513
H         -0.28566       -2.59258        2.62132
