33
elec13_conf-97.log	Energy: -2267108.2104435
N          2.59804       -3.70575       -0.37385
C          2.59779       -2.33134       -0.29821
N          1.34033       -1.74611       -0.32342
C          1.32016       -0.38588       -0.19939
C          2.46332        0.37973       -0.07075
N          2.11232        1.71667        0.00653
C          0.82242        1.74421       -0.07872
Br        -0.26062        3.28014        0.00343
N          0.24643        0.47348       -0.21511
C         -1.15549        0.13081       -0.16194
O         -1.36203       -1.06045       -0.89520
C         -2.58255       -1.66793       -0.43869
C         -3.66989       -1.47569       -1.47916
O         -3.94017       -0.09153       -1.56926
C         -2.92802       -1.01646        0.93585
O         -3.26344       -1.92951        1.93658
C         -1.66127       -0.20227        1.24998
O         -0.77737       -1.08903        1.91045
N          3.70737       -1.68021       -0.17344
C          3.78172       -0.27839       -0.02271
O          4.83989        0.29507        0.12366
H          1.87658       -4.15293       -0.92899
H          3.52890       -4.08968       -0.49777
H          0.46850       -2.26181       -0.33808
H         -1.73122        0.96767       -0.58842
H         -2.39842       -2.74449       -0.29378
H         -3.31613       -1.88723       -2.44299
H         -4.56025       -2.05573       -1.16269
H         -4.56292        0.06724       -2.28824
H         -3.77467       -0.32897        0.79914
H         -2.42302       -2.21045        2.33457
H         -1.86066        0.70229        1.84635
H         -0.06063       -0.59444        2.32864
