33
elec13_conf-130.log	Energy: -2267102.9072166
N         -4.15235       -2.78218       -0.22006
C         -3.60464       -1.52292       -0.22466
N         -2.20802       -1.51686       -0.34474
C         -1.64753       -0.26582       -0.23054
C         -2.36753        0.89257       -0.03996
N         -1.49396        1.95984        0.02052
C         -0.31123        1.46084       -0.15463
Br         1.25870        2.49066        0.01172
N         -0.31455        0.06760       -0.32472
C          0.69572       -0.89340       -0.82703
O          1.87621       -0.27704       -1.21299
C          2.93867       -0.51231       -0.26659
C          4.03230       -1.31342       -0.96078
O          5.10305       -1.42955       -0.05586
C          2.30351       -1.23477        0.91809
O          1.82673       -0.39299        1.95162
C          1.09844       -1.93151        0.25681
O          0.09139       -2.26566        1.16387
N         -4.34934       -0.47798       -0.09178
C         -3.83724        0.83082        0.06237
O         -4.56345        1.78260        0.24655
H         -3.70781       -3.49548       -0.78729
H         -5.16646       -2.77986       -0.23807
H         -1.68103       -2.28005        0.08540
H          0.23240       -1.37277       -1.70489
H          3.36017        0.45610        0.04377
H          3.62911       -2.30124       -1.26534
H          4.30672       -0.77344       -1.88654
H          5.83038       -1.89653       -0.48413
H          3.00586       -1.94859        1.37039
H          1.71385        0.51353        1.62329
H          1.42133       -2.84868       -0.26019
H          0.15455       -1.59855        1.87459
