33
elec13_conf-87.log	Energy: -2267104.2231981
N         -4.20985       -2.69655       -0.34321
C         -3.63031       -1.45078       -0.27524
N         -2.23902       -1.47011       -0.43246
C         -1.64090       -0.24221       -0.25091
C         -2.32797        0.91648        0.03507
N         -1.43135        1.96131        0.12244
C         -0.26221        1.45192       -0.11495
Br         1.30770        2.48429       -0.06455
N         -0.30483        0.07074       -0.36501
C          0.68688       -0.90146       -0.86800
O          1.89384       -0.31889       -1.21873
C          2.90152       -0.53754       -0.21579
C          4.06861       -1.27652       -0.85330
O          5.08160       -1.36277        0.12280
C          2.22695       -1.31711        0.91526
O          1.61965       -0.49968        1.89656
C          1.05202       -1.98311        0.18893
O          0.01390       -2.37718        1.03565
N         -4.34521       -0.40162       -0.04882
C         -3.79366        0.88097        0.18153
O         -4.49141        1.83241        0.45778
H         -3.80664       -3.36579       -0.99012
H         -5.22374       -2.66270       -0.33653
H         -1.72695       -2.27688       -0.07093
H          0.23176       -1.35249       -1.76523
H          3.25750        0.43868        0.14786
H          3.73229       -2.27587       -1.19846
H          4.38214       -0.70881       -1.74918
H          5.85611       -1.78984       -0.26217
H          2.92295       -2.04349        1.36606
H          2.28919        0.00157        2.37823
H          1.40487       -2.87035       -0.35880
H         -0.00355       -1.72530        1.75991
