33
elec13_conf-150.log	Energy: -2267108.2103619
N          2.59804       -3.70575       -0.37385
C          2.59779       -2.33134       -0.29821
N          1.34033       -1.74611       -0.32342
C          1.32016       -0.38588       -0.19939
C          2.46333        0.37973       -0.07075
N          2.11233        1.71667        0.00653
C          0.82242        1.74421       -0.07871
Br        -0.26062        3.28014        0.00343
N          0.24643        0.47348       -0.21510
C         -1.15549        0.13081       -0.16193
O         -1.36203       -1.06044       -0.89520
C         -2.58255       -1.66793       -0.43870
C         -3.66989       -1.47568       -1.47916
O         -3.94018       -0.09152       -1.56926
C         -2.92802       -1.01646        0.93585
O         -3.26344       -1.92953        1.93657
C         -1.66127       -0.20228        1.24998
O         -0.77737       -1.08905        1.91044
N          3.70737       -1.68021       -0.17345
C          3.78172       -0.27839       -0.02271
O          4.83989        0.29507        0.12366
H          1.87659       -4.15292       -0.92901
H          3.52890       -4.08967       -0.49778
H          0.46850       -2.26181       -0.33807
H         -1.73122        0.96767       -0.58840
H         -2.39843       -2.74448       -0.29379
H         -3.31613       -1.88721       -2.44300
H         -4.56025       -2.05572       -1.16270
H         -4.56292        0.06726       -2.28824
H         -3.77468       -0.32897        0.79914
H         -2.42302       -2.21047        2.33455
H         -1.86065        0.70228        1.84636
H         -0.06062       -0.59447        2.32861
