33
elec13_conf-118.log	Energy: -2267105.8619705
N          2.52815        3.28238        0.32599
C          1.23835        2.84352        0.12503
N          1.05786        1.48832        0.35013
C         -0.20937        1.01314        0.15270
C         -1.24022        1.82735       -0.27259
N         -2.40010        1.08312       -0.40236
C         -2.07791       -0.12206       -0.08053
Br        -3.26767       -1.58146       -0.05144
N         -0.72481       -0.27031        0.29348
C         -0.06788       -1.55266        0.49875
O          0.52327       -2.07441       -0.66835
C          1.82519       -1.52507       -0.76746
C          2.71008       -2.30902       -1.71702
O          4.00999       -1.72864       -1.68058
C          2.37066       -1.50271        0.67535
O          3.17664       -0.37288        0.93047
C          1.08344       -1.51684        1.55081
O          1.06244       -0.43615        2.43547
N          0.32284        3.66106       -0.28200
C         -1.00151        3.25817       -0.54057
O         -1.84515        4.03378       -0.93875
H          3.08843        2.80450        1.02380
H          2.60489        4.29361        0.32917
H          1.81418        0.92115        0.74197
H         -0.86496       -2.24728        0.78524
H          1.77207       -0.48034       -1.12805
H          2.79462       -3.35236       -1.37238
H          2.28400       -2.32626       -2.73406
H          4.06943       -1.06311       -2.37775
H          2.94489       -2.42467        0.86814
H          3.90436       -0.43265        0.28939
H          1.04456       -2.47743        2.09314
H          0.22184       -0.43290        2.91253
