33
elec13_conf-52.log	Energy: -2267103.8741146
N         -3.99371       -2.86169       -0.12836
C         -3.48446       -1.58795       -0.19235
N         -2.08629       -1.54325       -0.26813
C         -1.56824       -0.27059       -0.21283
C         -2.32936        0.87348       -0.11547
N         -1.49046        1.96979       -0.08821
C         -0.28840        1.49777       -0.19430
Br         1.24508        2.58342       -0.02685
N         -0.24399        0.09859       -0.28206
C          0.81514       -0.85580       -0.69621
O          1.98143       -0.21263       -1.07449
C          3.03714       -0.39093       -0.10705
C          4.16893       -1.18195       -0.73684
O          3.75040       -2.51450       -0.93994
C          2.38259       -1.06265        1.10361
O          1.88364       -0.16470        2.07885
C          1.20913       -1.81948        0.45649
O          0.18123       -2.11783        1.35578
N         -4.26522       -0.56156       -0.14771
C         -3.79900        0.77006       -0.05784
O         -4.56019        1.70713        0.04383
H         -3.50696       -3.59362       -0.63384
H         -5.00604       -2.89347       -0.18125
H         -1.54790       -2.26241        0.22026
H          0.39996       -1.39918       -1.56058
H          3.42223        0.60568        0.16316
H          4.43416       -0.68339       -1.68780
H          5.04779       -1.12295       -0.06381
H          4.43114       -2.98828       -1.43225
H          3.06851       -1.75168        1.61595
H          1.70132        0.70035        1.67721
H          1.57994       -2.74796        0.00430
H          0.20268       -1.40736        2.02412
