33
elec13_conf-89.log	Energy: -2267108.1459606
N          3.35191        2.63604       -0.14410
C          1.99311        2.52395        0.01634
N          1.49214        1.27360       -0.32074
C          0.13389        1.12789       -0.22197
C         -0.70039        2.15523        0.17518
N         -2.01083        1.70789        0.17536
C         -1.95283        0.47236       -0.19798
Br        -3.41053       -0.69795       -0.41624
N         -0.65688        0.03024       -0.47615
C         -0.23366       -1.33555       -0.74797
O          1.12724       -1.32931       -1.13061
C          1.91899       -1.79575       -0.03288
C          3.31797       -2.04415       -0.54591
O          3.86741       -0.83308       -1.05308
C          1.07699       -2.93875        0.51265
O          1.48994       -3.28967        1.81368
C         -0.32725       -2.27049        0.49880
O         -0.49249       -1.51245        1.65890
N          1.27667        3.52197        0.41591
C         -0.13211        3.47480        0.51113
O         -0.78148        4.44125        0.85115
H          3.91662        1.79496       -0.08583
H          3.74899        3.48246        0.24579
H          2.07187        0.58257       -0.78303
H         -0.83418       -1.72096       -1.58457
H          1.97356       -1.02004        0.75326
H          3.95028       -2.37981        0.28971
H          3.31193       -2.83704       -1.31523
H          3.60473       -0.75312       -1.97972
H          1.11083       -3.79819       -0.18021
H          1.20739       -4.19261        2.00842
H         -1.14634       -3.00071        0.36943
H          0.02873       -1.94867        2.35367
