33
elec13_conf-138.log	Energy: -2267100.5259751
N         -4.19626       -2.66817       -0.21758
C         -3.63036       -1.41723       -0.13443
N         -2.25027       -1.41148       -0.35958
C         -1.65247       -0.18662       -0.16460
C         -2.34477        0.94883        0.19097
N         -1.46764        2.01136        0.26441
C         -0.30661        1.54129       -0.06313
Br         1.24177        2.61409       -0.01421
N         -0.32420        0.15560       -0.33847
C          0.62262       -0.66325       -1.12549
O          1.88145       -0.06886       -1.19468
C          2.62974       -0.53699       -0.08451
C          4.08826       -0.16026       -0.20536
O          4.73113       -0.86673        0.84746
C          2.36340       -2.04082       -0.11029
O          2.54186       -2.67847        1.12727
C          0.86494       -2.09762       -0.51376
O          0.06815       -2.39826        0.59576
N         -4.35024       -0.38862        0.16330
C         -3.80132        0.88976        0.40876
O         -4.49200        1.82657        0.74729
H         -3.81195       -3.31285       -0.89967
H         -5.20892       -2.65124       -0.16171
H         -1.71067       -2.22320       -0.05000
H          0.22940       -0.72510       -2.15190
H          2.22650       -0.12576        0.86008
H          4.46258       -0.46663       -1.20090
H          4.20866        0.93298       -0.10942
H          5.67309       -0.66001        0.85420
H          2.98053       -2.50592       -0.90060
H          3.38799       -2.35662        1.48259
H          0.69529       -2.84482       -1.30707
H          0.68042       -2.62131        1.32350
