33
elec13_conf-13.log	Energy: -2267106.7961877
N          0.03612        4.37322       -0.40312
C         -0.73066        3.26072       -0.15241
N         -0.10621        2.05253       -0.45586
C         -0.88078        0.93553       -0.28768
C         -2.18512        0.98159        0.16823
N         -2.69376       -0.30233        0.23367
C         -1.73561       -1.07395       -0.16696
Br        -1.81272       -2.95118       -0.31488
N         -0.57211       -0.38285       -0.52338
C          0.73980       -0.96764       -0.77541
O          1.63010        0.03113       -1.23397
C          2.67516        0.23368       -0.27446
C          3.94657        0.74393       -0.93047
O          4.90502        1.03536        0.05425
C          2.82631       -1.14410        0.38098
O          3.55286       -1.14027        1.57581
C          1.36064       -1.57066        0.52087
O          0.89419       -0.94342        1.69159
N         -1.93491        3.37477        0.29827
C         -2.80878        2.28092        0.48069
O         -3.94718        2.42788        0.86857
H          1.03861        4.30465       -0.26489
H         -0.38638        5.23069       -0.06353
H          0.71872        1.99664       -1.04308
H          0.62263       -1.73631       -1.55479
H          2.35078        0.96007        0.49497
H          4.29611       -0.00737       -1.66926
H          3.74282        1.67227       -1.48979
H          4.90854        0.30922        0.69871
H          3.34095       -1.81586       -0.32660
H          2.93801       -0.84781        2.27007
H          1.22269       -2.66191        0.55867
H          0.02270       -1.28571        1.93298
