33
elec13_conf-115.log	Energy: -2267103.8740330
N          3.99371        2.86170       -0.12835
C          3.48446        1.58795       -0.19235
N          2.08628        1.54325       -0.26813
C          1.56824        0.27059       -0.21284
C          2.32936       -0.87348       -0.11547
N          1.49047       -1.96979       -0.08821
C          0.28840       -1.49777       -0.19430
Br        -1.24508       -2.58341       -0.02686
N          0.24399       -0.09859       -0.28207
C         -0.81514        0.85580       -0.69620
O         -1.98143        0.21263       -1.07449
C         -3.03715        0.39094       -0.10706
C         -4.16892        1.18198       -0.73686
O         -3.75035        2.51452       -0.93997
C         -2.38261        1.06264        1.10361
O         -1.88369        0.16468        2.07886
C         -1.20913        1.81947        0.45652
O         -0.18122        2.11778        1.35583
N          4.26522        0.56156       -0.14772
C          3.79900       -0.77006       -0.05784
O          4.56019       -1.70712        0.04383
H          3.50696        3.59362       -0.63384
H          5.00603        2.89347       -0.18123
H          1.54791        2.26240        0.22028
H         -0.39997        1.39920       -1.56056
H         -3.42225       -0.60567        0.16314
H         -4.43416        0.68341       -1.68781
H         -5.04778        1.12302       -0.06383
H         -4.43106        2.98830       -1.43230
H         -3.06852        1.75167        1.61595
H         -1.70130       -0.70035        1.67720
H         -1.57992        2.74796        0.00434
H         -0.20272        1.40732        2.02417
