33
elec13_conf-35.log	Energy: -2267104.4699976
N         -4.02804       -2.81090       -0.12468
C         -3.49950       -1.54607       -0.19238
N         -2.09925       -1.52283       -0.25557
C         -1.56306       -0.25762       -0.20203
C         -2.30758        0.89804       -0.12117
N         -1.45334        1.98245       -0.09859
C         -0.25730        1.49408       -0.19230
Br         1.28921        2.55959       -0.02632
N         -0.23186        0.09228       -0.26449
C          0.80923       -0.88073       -0.67156
O          1.99536       -0.26970       -1.05265
C          3.03111       -0.42443       -0.04959
C          4.17148       -1.21528       -0.68049
O          3.75500       -2.47739       -1.15152
C          2.35368       -1.10072        1.14412
O          1.84426       -0.20809        2.11932
C          1.18488       -1.84987        0.48276
O          0.14651       -2.14720        1.36816
N         -4.26468       -0.50765       -0.16120
C         -3.77957        0.81714       -0.07654
O         -4.52643        1.76672        0.01065
H         -3.54628       -3.55660       -0.61432
H         -5.04031       -2.82992       -0.18381
H         -1.57649       -2.24744        0.24196
H          0.38495       -1.41725       -1.53642
H          3.39594        0.57688        0.23068
H          4.61456       -0.60423       -1.48873
H          4.95520       -1.38468        0.07464
H          3.21103       -2.32081       -1.93543
H          3.03065       -1.79398        1.66347
H          1.67841        0.66288        1.72400
H          1.55954       -2.77964        0.03319
H          0.17270       -1.44638        2.04704
