33
elec13_conf-36.log	Energy: -2267109.1539353
N          1.48607       -4.18255       -0.28954
C          1.83934       -2.86267       -0.13131
N          0.79244       -1.96160       -0.30538
C          1.14121       -0.64009       -0.23135
C          2.43061       -0.20898        0.01682
N          2.45755        1.17418        0.02810
C          1.24134        1.54705       -0.20725
Br         0.62703        3.32294       -0.32078
N          0.35664        0.47686       -0.39336
C         -1.09481        0.54719       -0.42947
O         -1.61493       -0.67834       -0.91476
C         -2.60924       -1.20933       -0.01082
C         -3.73273       -1.80128       -0.84415
O         -4.26908       -0.85324       -1.73180
C         -3.02609       -0.01234        0.85995
O         -3.58424       -0.36357        2.08609
C         -1.70785        0.76184        0.97193
O         -0.96582        0.10844        1.97866
N          3.06031       -2.53213        0.12641
C          3.51108       -1.19552        0.19973
O          4.67327       -0.92215        0.40601
H          0.56118       -4.46683        0.01470
H          2.23249       -4.82219       -0.03824
H         -0.08530       -2.21470       -0.74535
H         -1.37194        1.37026       -1.10753
H         -2.15012       -1.98134        0.63476
H         -3.36949       -2.70572       -1.37226
H         -4.53528       -2.11605       -0.15871
H         -3.53937       -0.55897       -2.29586
H         -3.76300        0.57902        0.29393
H         -2.83822       -0.55537        2.67757
H         -1.84369        1.83242        1.19185
H         -0.18507        0.62872        2.21075
