33
elec13_conf-78.log	Energy: -2267106.8851247
N          3.95344        1.59225       -0.22737
C          2.60244        1.88187       -0.11237
N          1.77437        0.85535       -0.52716
C          0.43492        1.04553       -0.31472
C         -0.07884        2.21818        0.20627
N         -1.45892        2.12337        0.27429
C         -1.74536        0.94301       -0.16704
Br        -3.46821        0.21788       -0.37271
N         -0.62680        0.20250       -0.55854
C         -0.56644       -1.21996       -0.88384
O          0.77253       -1.55364       -1.17451
C          1.34425       -2.16717       -0.01659
C          2.72039       -2.68098       -0.37304
O          3.59540       -1.59937       -0.65840
C          0.23291       -3.11511        0.40754
O          0.43509       -3.57557        1.72455
C         -0.98748       -2.15146        0.30256
O         -1.09834       -1.42190        1.48651
N          2.20090        2.99565        0.40007
C          0.83318        3.30615        0.60219
O          0.48677        4.37257        1.06349
H          4.23128        1.04544       -1.03815
H          4.53042        2.41289       -0.06970
H          2.13808        0.00954       -0.95823
H         -1.17779       -1.40385       -1.77918
H          1.45471       -1.42364        0.79742
H          3.09427       -3.31451        0.45084
H          2.66307       -3.29369       -1.28576
H          3.84365       -1.16107        0.16941
H          0.14766       -3.94531       -0.31484
H         -0.03781       -4.40824        1.85098
H         -1.92738       -2.67831        0.05916
H         -0.74526       -1.98611        2.19501
