33
elec13_conf-116.log	Energy: -2267106.7918328
N          4.16254        1.07296       -0.19127
C          2.86447        1.53455       -0.10255
N          1.91377        0.61841       -0.51930
C          0.60958        0.98144       -0.32301
C          0.24909        2.21739        0.18460
N         -1.12998        2.30001        0.25526
C         -1.56278        1.16196       -0.17629
Br        -3.37697        0.65862       -0.33861
N         -0.55260        0.27703       -0.55549
C         -0.67521       -1.13183       -0.94415
O          0.61376       -1.63855       -1.16406
C          1.02666       -2.32930        0.02341
C          2.33983       -3.01729       -0.26115
O          3.36514       -2.05805       -0.49689
C         -0.22586       -3.14046        0.36211
O         -0.24063       -3.71946        1.62504
C         -1.30839       -2.03943        0.17342
O         -1.41733       -1.40837        1.42406
N          2.60537        2.70164        0.38634
C          1.29157        3.18736        0.57171
O          1.07537        4.29521        1.01398
H          4.37754        0.42266       -0.94120
H          4.85039        1.80533       -0.04926
H          2.17143       -0.29090       -0.89658
H         -1.24375       -1.19000       -1.88427
H          1.18421       -1.60533        0.84838
H          2.58398       -3.69156        0.57801
H          2.25107       -3.62090       -1.17723
H          3.64915       -1.68503        0.35043
H         -0.35582       -3.92997       -0.39716
H         -0.58593       -3.03795        2.22726
H         -2.27510       -2.44617       -0.15955
H         -2.23111       -0.88480        1.45818
