33
elec13_conf-33.log	Energy: -2267104.4700541
N         -4.02804       -2.81090       -0.12469
C         -3.49950       -1.54607       -0.19238
N         -2.09925       -1.52283       -0.25557
C         -1.56306       -0.25762       -0.20202
C         -2.30758        0.89804       -0.12117
N         -1.45334        1.98245       -0.09859
C         -0.25730        1.49409       -0.19229
Br         1.28922        2.55959       -0.02632
N         -0.23186        0.09228       -0.26448
C          0.80923       -0.88073       -0.67156
O          1.99536       -0.26970       -1.05265
C          3.03110       -0.42443       -0.04958
C          4.17148       -1.21527       -0.68048
O          3.75501       -2.47738       -1.15152
C          2.35367       -1.10073        1.14411
O          1.84425       -0.20810        2.11932
C          1.18488       -1.84988        0.48275
O          0.14651       -2.14722        1.36815
N         -4.26468       -0.50765       -0.16120
C         -3.77957        0.81715       -0.07654
O         -4.52643        1.76673        0.01065
H         -3.54628       -3.55660       -0.61433
H         -5.04031       -2.82991       -0.18382
H         -1.57649       -2.24745        0.24195
H          0.38494       -1.41724       -1.53643
H          3.39593        0.57689        0.23069
H          4.61456       -0.60421       -1.48872
H          4.95520       -1.38466        0.07465
H          3.21105       -2.32080       -1.93543
H          3.03065       -1.79399        1.66347
H          1.67840        0.66287        1.72400
H          1.55955       -2.77964        0.03318
H          0.17269       -1.44640        2.04702
