33
elec13_conf-16.log	Energy: -2267107.0832733
N         -0.23725        4.38976       -0.35509
C         -0.94845        3.22975       -0.18305
N         -0.25618        2.06406       -0.49506
C         -0.94532        0.89832       -0.30502
C         -2.24224        0.85958        0.17258
N         -2.66624       -0.45484        0.23924
C         -1.66710       -1.16272       -0.17779
Br        -1.63153       -3.04026       -0.33852
N         -0.55431       -0.39700       -0.54964
C          0.79694       -0.89786       -0.77367
O          1.63627        0.16009       -1.19952
C          2.68591        0.37557       -0.24544
C          3.94114        0.91579       -0.90933
O          4.90705        1.21130        0.06610
C          2.87481       -1.00300        0.39889
O          3.59870       -0.98706        1.59503
C          1.42301       -1.47342        0.53026
O          0.92697       -0.85054        1.69093
N         -2.15397        3.26348        0.28126
C         -2.93351        2.11416        0.52424
O         -4.05734        2.18248        0.97319
H          0.51260        4.42344       -1.03495
H         -0.79807        5.22955       -0.26786
H          0.65592        2.03971       -0.93505
H          0.74757       -1.66589       -1.56143
H          2.35295        1.08932        0.53210
H          4.29326        0.17847       -1.66116
H          3.71537        1.84719       -1.45492
H          4.92258        0.48512        0.71025
H          3.41089       -1.65472       -0.31159
H          2.97875       -0.70356        2.28840
H          1.31859       -2.56802        0.57494
H          0.06427       -1.21711        1.92866
