33
elec13_conf-51.log	Energy: -2267108.1058439
N         -0.60401        4.32739       -0.22913
C         -1.24991        3.11607       -0.08431
N         -0.42788        2.00738       -0.24870
C         -1.05990        0.79584       -0.17358
C         -2.41547        0.66062        0.05307
N         -2.74665       -0.68354        0.06120
C         -1.64022       -1.31371       -0.15712
Br        -1.43089       -3.18185       -0.25542
N         -0.53879       -0.46525       -0.32668
C          0.85165       -0.84655       -0.42149
O          1.57799        0.17185       -1.11012
C          2.76085        0.49920       -0.38489
C          3.92358        0.73817       -1.32753
O          5.04701        0.94231       -0.48353
C          2.98704       -0.67497        0.57628
O          3.71930       -0.33588        1.71966
C          1.54350       -1.02599        0.94148
O          1.03629       -0.08466        1.84668
N         -2.51710        3.06641        0.15190
C         -3.25541        1.86040        0.20619
O         -4.45597        1.85639        0.37316
H          0.33346        4.39466        0.15478
H         -1.20454        5.10895        0.01396
H          0.47771        2.06678       -0.69920
H          0.89238       -1.78564       -0.99510
H          2.59311        1.40367        0.23000
H          4.04619       -0.14771       -1.97936
H          3.72754        1.61250       -1.97565
H          5.84285        1.04764       -1.01838
H          3.44622       -1.51889        0.02273
H          4.51689        0.12279        1.40780
H          1.42557       -2.06169        1.30794
H          1.75353        0.10049        2.47458
