33
elec13_conf-40.log	Energy: -2267110.0447666
N          2.19576       -3.76172       -0.20544
C          2.28170       -2.39234       -0.27252
N          1.06131       -1.73556       -0.16553
C          1.13834       -0.37389       -0.13984
C          2.32476        0.32386       -0.24553
N          2.06623        1.68430       -0.20400
C          0.78597        1.79580       -0.09279
Br        -0.17177        3.40982        0.05869
N          0.12156        0.55494       -0.03769
C         -1.29593        0.30929        0.03473
O         -1.66968       -0.62300       -0.95905
C         -2.64184       -1.54343       -0.43616
C         -4.04312       -1.00636       -0.71647
O         -4.20310       -0.72921       -2.07873
C         -2.29859       -1.68726        1.03951
O         -1.27127       -2.64936        1.18638
C         -1.77127       -0.28152        1.40877
O         -0.76608       -0.42932        2.37486
N          3.43054       -1.80999       -0.38751
C          3.59876       -0.41063       -0.36421
O          4.69180        0.10849       -0.44051
H          1.35387       -4.21000       -0.54906
H          3.06610       -4.23123       -0.42932
H          0.20732       -2.22018        0.12873
H         -1.77881        1.28214       -0.13983
H         -2.49646       -2.49279       -0.97191
H         -4.79038       -1.76409       -0.42985
H         -4.23352       -0.11173       -0.08277
H         -3.40799       -0.25174       -2.36095
H         -3.17778       -1.96837        1.64512
H         -0.79502       -2.41409        2.00307
H         -2.59783        0.34351        1.78913
H         -0.19128        0.34910        2.38814
