33
elec13_conf-39.log	Energy: -2267108.8091440
N          1.61174       -4.04178       -0.24849
C          1.93984       -2.70219       -0.19929
N          0.84657       -1.84827       -0.12300
C          1.14626       -0.51444       -0.10479
C          2.43706       -0.03048       -0.16312
N          2.40956        1.35330       -0.11234
C          1.16215        1.67471       -0.03463
Br         0.49425        3.43107        0.06487
N          0.29833        0.56588       -0.02050
C         -1.13470        0.56184        0.01818
O         -1.64100       -0.09446       -1.13555
C         -2.83601       -0.78407       -0.80213
C         -4.06095        0.11833       -0.93759
O         -5.18677       -0.66830       -0.61864
C         -2.61978       -1.29230        0.62350
O         -1.82811       -2.48229        0.63570
C         -1.77107       -0.16918        1.26502
O         -0.87138       -0.60377        2.22954
N          3.17157       -2.32261       -0.25738
C          3.56874       -0.96550       -0.28015
O          4.73356       -0.64344       -0.37525
H          0.81036       -4.34189        0.29689
H          2.42616       -4.64066       -0.15943
H         -0.11222       -2.18889       -0.18978
H         -1.43408        1.61997        0.01906
H         -2.94660       -1.62654       -1.50256
H         -3.96276        0.99408       -0.26373
H         -4.08544        0.50489       -1.97323
H         -5.98639       -0.14154       -0.73707
H         -3.56836       -1.45947        1.15221
H         -2.40145       -3.24204        0.47191
H         -2.44635        0.55027        1.75225
H         -0.59559       -1.50340        1.99862
