33
elec13_conf-161.log	Energy: -2267103.3194966
N         -4.17556       -2.76288       -0.23398
C         -3.61944       -1.50741       -0.23173
N         -2.22208       -1.51082       -0.35117
C         -1.65282       -0.26393       -0.23294
C         -2.36484        0.89862       -0.03809
N         -1.48443        1.96003        0.02368
C         -0.30515        1.45420       -0.15402
Br         1.27137        2.47468        0.00632
N         -0.31771        0.06153       -0.32792
C          0.68757       -0.90818       -0.82177
O          1.87112       -0.30540       -1.21510
C          2.93668       -0.53163       -0.26750
C          4.03941       -1.34094       -0.95359
O          5.22659       -1.36024       -0.20277
C          2.29147       -1.23212        0.92634
O          1.82360       -0.37947        1.95172
C          1.08552       -1.93503        0.27317
O          0.07852       -2.26074        1.18207
N         -4.35620       -0.45789       -0.09334
C         -3.83488        0.84650        0.06732
O         -4.55373        1.80210        0.25893
H         -3.73758       -3.47500       -0.80788
H         -5.18971       -2.75330       -0.25055
H         -1.70367       -2.28071        0.07623
H          0.22037       -1.39660       -1.69255
H          3.36123        0.44043        0.02682
H          3.66952       -2.35838       -1.19321
H          4.26227       -0.84751       -1.91127
H          5.12057       -1.95795        0.54789
H          2.97270       -1.95845        1.39785
H          1.73426        0.52873        1.61894
H          1.40883       -2.85738       -0.23452
H          0.12537       -1.57783        1.87826
