33
elec13_conf-62.log	Energy: -2267108.2863784
N         -0.75383        4.33810       -0.23128
C         -1.35865        3.10065       -0.13554
N         -0.51188        2.02113       -0.34110
C         -1.08601        0.78648       -0.22280
C         -2.42196        0.60374        0.07772
N         -2.70519       -0.75112        0.09549
C         -1.59090       -1.34162       -0.18291
Br        -1.32299       -3.20125       -0.29996
N         -0.52903       -0.45511       -0.41056
C          0.87369       -0.79959       -0.49666
O          1.59520        0.27382       -1.10150
C          2.75985        0.57293       -0.33041
C          3.95218        0.88122       -1.22085
O          5.10095        1.06123       -0.40015
C          2.97828       -0.65680        0.56053
O          3.69060       -0.38978        1.73478
C          1.53323       -1.04318        0.87241
O          0.98497       -0.15218        1.80549
N         -2.60939        3.00354        0.16747
C         -3.28396        1.77097        0.32767
O         -4.45690        1.72119        0.63008
H         -0.02848        4.45090       -0.93208
H         -1.43224        5.09302       -0.21623
H          0.46240        2.10592       -0.59879
H          0.95171       -1.70189       -1.12332
H          2.55762        1.43391        0.33742
H          4.14656        0.02142       -1.88120
H          3.75987        1.75621       -1.86627
H          5.14248        1.98526       -0.12188
H          3.45343       -1.45968       -0.03862
H          4.52632        0.01954        1.45745
H          1.42031       -2.09661        1.18427
H          1.65693       -0.02290        2.49333
