33
elec13_conf-20.log	Energy: -2267110.4200612
N          2.77482       -3.40968       -0.19883
C          2.65400       -2.04078       -0.23639
N          1.34393       -1.58045       -0.21000
C          1.20906       -0.22420       -0.14938
C          2.27979        0.64784       -0.15143
N          1.81287        1.95105       -0.09858
C          0.52567        1.86040       -0.07954
Br        -0.67580        3.30734        0.03556
N          0.05821        0.53410       -0.10344
C         -1.30871        0.07427       -0.13272
O         -1.47834       -0.85043       -1.18480
C         -2.31127       -1.93708       -0.76956
C         -3.76656       -1.66289       -1.13109
O         -4.26246       -0.50240       -0.48772
C         -2.05569       -2.08544        0.73007
O         -0.90817       -2.89748        0.91885
C         -1.77021       -0.63970        1.18503
O         -0.80376       -0.68822        2.20342
N          3.70608       -1.28888       -0.25548
C          3.65563        0.11896       -0.19345
O          4.66008        0.79873       -0.18197
H          2.03829       -3.96891       -0.61428
H          3.72035       -3.73384       -0.36883
H          0.55563       -2.19735        0.01309
H         -1.92016        0.97221       -0.29832
H         -1.96729       -2.84176       -1.29575
H         -3.84801       -1.58583       -2.22894
H         -4.38431       -2.51931       -0.81134
H         -4.14185        0.25064       -1.07851
H         -2.92126       -2.51900        1.25817
H         -0.52863       -2.63187        1.77576
H         -2.70488       -0.16851        1.52408
H         -0.44542        0.19368        2.37290
