33
elec13_conf-68.log	Energy: -2267103.8738259
N          3.99374        2.86167       -0.12844
C          3.48448        1.58793       -0.19239
N          2.08631        1.54324       -0.26820
C          1.56824        0.27058       -0.21286
C          2.32936       -0.87349       -0.11542
N          1.49045       -1.96979       -0.08814
C          0.28840       -1.49776       -0.19429
Br        -1.24510       -2.58340       -0.02688
N          0.24399       -0.09858       -0.28212
C         -0.81512        0.85581       -0.69625
O         -1.98143        0.21268       -1.07454
C         -3.03711        0.39092       -0.10704
C         -4.16897        1.18188       -0.73676
O         -3.75052        2.51447       -0.93980
C         -2.38255        1.06266        1.10360
O         -1.88360        0.16474        2.07887
C         -1.20910        1.81949        0.45646
O         -0.18118        2.11786        1.35573
N          4.26523        0.56153       -0.14769
C          3.79899       -0.77008       -0.05777
O          4.56017       -1.70715        0.04396
H          3.50702        3.59356       -0.63401
H          5.00607        2.89343       -0.18131
H          1.54793        2.26242        0.22017
H         -0.39993        1.39920       -1.56061
H         -3.42212       -0.60572        0.16318
H         -4.43417        0.68335       -1.68775
H         -5.04780        1.12278       -0.06372
H         -4.43131        2.98823       -1.43205
H         -3.06846        1.75170        1.61593
H         -1.70122       -0.70031        1.67725
H         -1.57994        2.74796        0.00427
H         -0.20265        1.40743        2.02411
