33
elec13_conf-174.log	Energy: -2267109.3342565
N          3.18672        3.39360        0.21553
C          2.98620        2.03335        0.17201
N          1.67557        1.64374       -0.05656
C          1.45907        0.29871       -0.08767
C          2.45705       -0.63022        0.11902
N          1.92301       -1.90718        0.03943
C          0.66784       -1.74579       -0.19598
Br        -0.59108       -3.13615       -0.38165
N          0.28270       -0.39163       -0.31963
C         -1.07045        0.07901       -0.30417
O         -1.41676        0.51950        1.00205
C         -2.57032        1.36198        0.92374
C         -3.71404        0.69609        1.67779
O         -3.96946       -0.59132        1.16258
C         -2.86782        1.54455       -0.57891
O         -3.25483        2.88231       -0.82905
C         -1.51271        1.20888       -1.23598
O         -0.70495        2.36519       -1.16628
N          3.97230        1.22181        0.37707
C          3.83457       -0.18112        0.39096
O          4.77503       -0.91819        0.60018
H          2.58571        3.98904       -0.34258
H          4.16775        3.65006        0.22132
H          0.90788        2.27579       -0.28814
H         -1.68123       -0.79666       -0.58294
H         -2.33210        2.34516        1.36467
H         -3.47583        0.67022        2.75724
H         -4.62966        1.29634        1.55110
H         -3.20164       -1.14044        1.37866
H         -3.64043        0.82589       -0.89447
H         -3.81127        2.91195       -1.61857
H         -1.59871        0.85108       -2.27732
H         -1.33353        3.11199       -1.14274
