33
elec13_conf-46.log	Energy: -2267104.8729842
N         -4.21676       -2.68639       -0.34930
C         -3.63388       -1.44279       -0.27725
N         -2.24269       -1.46521       -0.43588
C         -1.64093       -0.23976       -0.25110
C         -2.32485        0.91986        0.03875
N         -1.42588        1.96258        0.12654
C         -0.25853        1.45122       -0.11418
Br         1.31205        2.48390       -0.06892
N         -0.30410        0.07058       -0.36649
C          0.68596       -0.90226       -0.87094
O          1.89515       -0.31996       -1.21541
C          2.90037       -0.54724       -0.21120
C          4.06755       -1.30373       -0.84466
O          5.12766       -1.47202        0.06823
C          2.21908       -1.32437        0.91712
O          1.60668       -0.50926        1.89849
C          1.04696       -1.98821        0.18319
O          0.00673       -2.38579        1.02494
N         -4.34564       -0.39243       -0.04608
C         -3.79051        0.88765        0.18776
O         -4.48477        1.84022        0.46871
H         -3.81497       -3.35603       -0.99662
H         -5.23056       -2.65068       -0.34118
H         -1.73222       -2.27534       -0.07976
H          0.23298       -1.34933       -1.77119
H          3.24981        0.43323        0.15425
H          3.73834       -2.31218       -1.14416
H          4.36850       -0.77623       -1.76807
H          5.59258       -0.63025        0.16084
H          2.91251       -2.05245        1.36918
H          2.27497       -0.06664        2.43548
H          1.40267       -2.87297       -0.36663
H         -0.00988       -1.73918        1.75402
