33
elec13_conf-182.log	Energy: -2267103.3194778
N         -4.17556       -2.76288       -0.23397
C         -3.61944       -1.50741       -0.23173
N         -2.22208       -1.51082       -0.35116
C         -1.65282       -0.26393       -0.23293
C         -2.36484        0.89863       -0.03809
N         -1.48443        1.96003        0.02368
C         -0.30515        1.45421       -0.15402
Br         1.27137        2.47468        0.00633
N         -0.31771        0.06153       -0.32791
C          0.68757       -0.90818       -0.82177
O          1.87112       -0.30539       -1.21510
C          2.93668       -0.53163       -0.26750
C          4.03941       -1.34093       -0.95359
O          5.22659       -1.36023       -0.20278
C          2.29146       -1.23213        0.92634
O          1.82358       -0.37949        1.95172
C          1.08553       -1.93504        0.27315
O          0.07853       -2.26077        1.18205
N         -4.35620       -0.45789       -0.09334
C         -3.83488        0.84650        0.06731
O         -4.55373        1.80211        0.25891
H         -3.73758       -3.47501       -0.80786
H         -5.18971       -2.75329       -0.25055
H         -1.70366       -2.28071        0.07623
H          0.22037       -1.39658       -1.69256
H          3.36123        0.44043        0.02683
H          3.66953       -2.35838       -1.19321
H          4.26226       -0.84751       -1.91127
H          5.12059       -1.95794        0.54788
H          2.97270       -1.95846        1.39785
H          1.73425        0.52872        1.61894
H          1.40884       -2.85738       -0.23454
H          0.12537       -1.57786        1.87825
