33
elec13_conf-156.log	Energy: -2267107.5847224
N          1.70463       -4.01621       -0.09065
C          1.99639       -2.66978       -0.13504
N          0.89092       -1.84194       -0.04038
C          1.15830       -0.50794       -0.05172
C          2.42954        0.00642       -0.20645
N          2.37352        1.39163       -0.18017
C          1.12934        1.68941       -0.02732
Br         0.43469        3.43555        0.10158
N          0.28950        0.56026        0.08006
C         -1.14707        0.54488        0.10061
O         -1.65389        0.00529       -1.10617
C         -2.82127       -0.75449       -0.83544
C         -4.07641        0.11381       -0.89590
O         -5.17678       -0.73796       -0.67262
C         -2.58433       -1.39185        0.53964
O         -1.78873       -2.56516        0.43999
C         -1.78163       -0.29670        1.26928
O         -0.86825       -0.85446        2.16371
N          3.21588       -2.26641       -0.29084
C          3.57506       -0.90585       -0.37720
O          4.72172       -0.55243       -0.55809
H          0.92649       -4.30201        0.49480
H          2.53576       -4.59097       -0.00136
H         -0.05687       -2.20297        0.11126
H         -1.44670        1.59887        0.19903
H         -2.90596       -1.53147       -1.61199
H         -4.01517        0.92112       -0.13705
H         -4.10379        0.60128       -1.88813
H         -5.99356       -0.23159       -0.75762
H         -3.53301       -1.61660        1.04980
H         -2.27760       -3.21700       -0.08006
H         -2.50362        0.35848        1.79094
H         -0.30129       -0.15235        2.51153
