33
elec13_conf-64.log	Energy: -2267108.4123823
N          3.47146        2.44549       -0.15160
C          2.10393        2.41180       -0.01155
N          1.53679        1.20497       -0.39420
C          0.17621        1.12170       -0.26494
C         -0.60158        2.17922        0.16741
N         -1.93023        1.78954        0.19854
C         -1.93569        0.55613       -0.18653
Br        -3.44850       -0.54677       -0.38166
N         -0.66885        0.06124       -0.50331
C         -0.30409       -1.31971       -0.78643
O          1.05522       -1.36327       -1.16387
C          1.82262       -1.85807       -0.06490
C          3.21707       -2.15356       -0.54812
O          3.82484       -0.89771       -0.82856
C          0.94152       -2.98114        0.46183
O          1.33580       -3.36571        1.75926
C         -0.43794       -2.26292        0.45114
O         -0.57859       -1.51211        1.61934
N          1.44419        3.43657        0.41769
C          0.03434        3.46598        0.50743
O         -0.56246        4.46400        0.85361
H          3.96711        1.56475       -0.05263
H          3.90300        3.25574        0.27780
H          2.07371        0.50918       -0.90403
H         -0.91649       -1.67357       -1.62861
H          1.89543       -1.09395        0.73125
H          3.75965       -2.70174        0.24409
H          3.16453       -2.78831       -1.45090
H          4.57617       -1.02958       -1.41959
H          0.94898       -3.83104       -0.24335
H          1.01583       -4.25894        1.94035
H         -1.28210       -2.96203        0.31210
H         -0.07844       -1.97614        2.31137
