33
elec13_conf-175.log	Energy: -2267104.1561425
N          4.24625        2.60944       -0.30735
C          3.63250        1.38172       -0.31545
N          2.23162        1.45289       -0.34009
C          1.61322        0.22900       -0.23048
C          2.28000       -0.97137       -0.12822
N          1.35589       -1.99373       -0.04729
C          0.19284       -1.42925       -0.12647
Br        -1.41646       -2.38256        0.10575
N          0.26048       -0.03203       -0.24823
C         -0.72519        0.99886       -0.64273
O         -1.95874        0.45865       -0.97846
C         -2.95739        0.70794        0.04817
C         -4.03631        1.58955       -0.57067
O         -4.53673        1.01735       -1.74577
C         -2.20720        1.33950        1.21491
O         -1.72415        0.43100        2.18503
C         -1.00720        2.00251        0.50864
O          0.06910        2.24391        1.36229
N          4.32574        0.29515       -0.26724
C          3.75484       -0.98987       -0.12158
O          4.43797       -1.98421       -0.01669
H          3.80465        3.36609       -0.81786
H          5.25565        2.55643       -0.39147
H          1.77955        2.22654        0.15129
H         -0.29269        1.49792       -1.52517
H         -3.39744       -0.26358        0.31868
H         -4.87253        1.69096        0.13987
H         -3.62563        2.60831       -0.74125
H         -3.77014        0.77478       -2.28645
H         -2.82163        2.08422        1.74406
H         -1.67105       -0.46385        1.81130
H         -1.31484        2.95740        0.05434
H          0.02235        1.54720        2.04474
