33
elec13_conf-178.log	Energy: -2267104.6485931
N          3.53786       -2.61067        0.37258
C          3.03972       -1.37813        0.03598
N          1.68555       -1.21163        0.37599
C          1.20331        0.06651        0.17788
C          1.95687        1.08460       -0.36001
N          1.20161        2.24188       -0.41420
C          0.04759        1.92341        0.06984
Br        -1.39643        3.10822        0.27533
N         -0.04916        0.57609        0.47088
C         -1.32888       -0.06144        0.77864
O         -2.09322       -0.25872       -0.38432
C         -1.70946       -1.49849       -0.99187
C         -2.86112       -1.94255       -1.87700
O         -4.04236       -2.09431       -1.12847
C         -1.39874       -2.44815        0.18348
O         -0.27324       -3.26160       -0.00746
C         -1.30071       -1.47182        1.40772
O         -0.20670       -1.69510        2.26674
N          3.78503       -0.48738       -0.51923
C          3.35691        0.83972       -0.75638
O          4.09283        1.66789       -1.24373
H          2.90940       -3.40584        0.39079
H          4.47341       -2.78816        0.02446
H          1.31810       -1.67744        1.21375
H         -1.87430        0.65427        1.40359
H         -0.79407       -1.35575       -1.59896
H         -2.98162       -1.21842       -2.70547
H         -2.61323       -2.92093       -2.31771
H         -4.21679       -1.23471       -0.71801
H         -2.25169       -3.12291        0.33684
H          0.45746       -2.68834       -0.29598
H         -2.24371       -1.54215        1.97512
H         -0.28565       -2.59258        2.62133
