33
elec13_conf-31.log	Energy: -2267110.0447729
N          2.19568       -3.76176       -0.20543
C          2.28165       -2.39238       -0.27251
N          1.06127       -1.73558       -0.16553
C          1.13833       -0.37391       -0.13984
C          2.32477        0.32381       -0.24554
N          2.06626        1.68426       -0.20401
C          0.78600        1.79579       -0.09280
Br        -0.17170        3.40983        0.05868
N          0.12157        0.55494       -0.03769
C         -1.29593        0.30932        0.03472
O         -1.66969       -0.62297       -0.95905
C         -2.64186       -1.54339       -0.43615
C         -4.04313       -1.00632       -0.71647
O         -4.20312       -0.72920       -2.07874
C         -2.29861       -1.68721        1.03953
O         -1.27131       -2.64931        1.18642
C         -1.77129       -0.28146        1.40877
O         -0.76610       -0.42926        2.37486
N          3.43050       -1.81006       -0.38750
C          3.59875       -0.41070       -0.36421
O          4.69180        0.10839       -0.44051
H          1.35378       -4.21002       -0.54904
H          3.06602       -4.23129       -0.42930
H          0.20728       -2.22018        0.12874
H         -1.77878        1.28218       -0.13986
H         -2.49648       -2.49276       -0.97189
H         -4.79039       -1.76405       -0.42984
H         -4.23353       -0.11168       -0.08279
H         -3.40800       -0.25173       -2.36096
H         -3.17781       -1.96829        1.64513
H         -0.79506       -2.41404        2.00311
H         -2.59784        0.34358        1.78911
H         -0.19131        0.34916        2.38815
