33
elec13_conf-112.log	Energy: -2267107.9045640
N         -3.93308       -1.67958       -0.10597
C         -2.58802       -1.93640       -0.01003
N         -1.79080       -0.88471       -0.43820
C         -0.44285       -1.06856       -0.30695
C          0.10762       -2.25556        0.14412
N          1.48492       -2.13447        0.19205
C          1.73563       -0.93049       -0.20377
Br         3.44658       -0.14052       -0.34392
N          0.59777       -0.19512       -0.53767
C          0.51656        1.22313       -0.89020
O         -0.82139        1.54009       -1.16981
C         -1.38946        2.15946       -0.00818
C         -2.73486        2.72008       -0.37652
O         -3.59189        1.61404       -0.65151
C         -0.27377        3.11305        0.42769
O         -0.41090        3.65120        1.70126
C          0.95540        2.17537        0.27886
O          1.08332        1.52417        1.51731
N         -2.14513       -3.07133        0.42390
C         -0.77284       -3.38751        0.49648
O         -0.38219       -4.48249        0.84266
H         -4.22427       -0.71096       -0.01229
H         -4.51426       -2.37397        0.34910
H         -2.18813       -0.06786       -0.89446
H          1.11700        1.39176       -1.79655
H         -1.53409        1.40985        0.79280
H         -3.10742        3.32566        0.46953
H         -2.62728        3.37261       -1.26133
H         -4.34415        1.91817       -1.17408
H         -0.20396        3.93687       -0.30291
H         -0.02029        3.00064        2.30991
H          1.87347        2.72038        0.01240
H          1.95110        1.09970        1.57800
