33
elec13_conf-93.log	Energy: -2267106.7961689
N         -0.03611       -4.37322       -0.40312
C          0.73067       -3.26072       -0.15241
N          0.10622       -2.05253       -0.45586
C          0.88078       -0.93553       -0.28768
C          2.18512       -0.98158        0.16823
N          2.69376        0.30234        0.23367
C          1.73561        1.07396       -0.16695
Br         1.81271        2.95119       -0.31488
N          0.57210        0.38285       -0.52338
C         -0.73980        0.96764       -0.77541
O         -1.63010       -0.03114       -1.23397
C         -2.67516       -0.23369       -0.27446
C         -3.94657       -0.74395       -0.93046
O         -4.90500       -1.03539        0.05427
C         -2.82632        1.14409        0.38097
O         -3.55286        1.14028        1.57580
C         -1.36065        1.57067        0.52085
O         -0.89419        0.94344        1.69158
N          1.93492       -3.37476        0.29827
C          2.80878       -2.28091        0.48070
O          3.94719       -2.42786        0.86857
H         -1.03859       -4.30466       -0.26488
H          0.38640       -5.23069       -0.06352
H         -0.71871       -1.99665       -1.04307
H         -0.62263        1.73630       -1.55481
H         -2.35076       -0.96007        0.49498
H         -4.29612        0.00733       -1.66925
H         -3.74281       -1.67230       -1.48977
H         -4.90853       -0.30924        0.69872
H         -3.34096        1.81584       -0.32662
H         -2.93802        0.84783        2.27007
H         -1.22271        2.66192        0.55864
H         -0.02271        1.28575        1.93297
