33
elec13_conf-125.log	Energy: -2267108.7932429
N          2.83762       -3.43061       -0.60409
C          2.67533       -2.08529       -0.34005
N          1.37271       -1.62711       -0.48140
C          1.19896       -0.28110       -0.29342
C          2.23890        0.57876        0.00346
N          1.75748        1.87419        0.07469
C          0.48934        1.78719       -0.16515
Br        -0.70668        3.23011       -0.29198
N          0.05630        0.47592       -0.40294
C         -1.32636        0.03173       -0.50433
O         -1.37517       -1.26533       -1.05933
C         -1.98372       -2.21206       -0.15402
C         -3.37583       -2.55939       -0.67248
O         -4.20596       -1.42635       -0.78478
C         -1.94405       -1.54740        1.22296
O         -0.69204       -1.73715        1.86405
C         -2.03532       -0.04737        0.89193
O         -1.49768        0.76768        1.87313
N          3.68661       -1.34907       -0.02388
C          3.60741        0.05357        0.14548
O          4.58915        0.72025        0.39281
H          2.09836       -4.05460       -0.29757
H          3.77304       -3.75400       -0.37910
H          0.65929       -2.15721       -0.96655
H         -1.83951        0.74308       -1.16787
H         -1.36077       -3.12335       -0.14495
H         -3.26918       -3.08632       -1.63889
H         -3.86148       -3.25594        0.03057
H         -3.92061       -0.92809       -1.56229
H         -2.77908       -1.87023        1.86448
H         -0.74371       -2.47547        2.48164
H         -3.08950        0.21878        0.74215
H         -0.72232        0.30140        2.22774
