33
elec13_conf-44.log	Energy: -2267107.4909662
N          0.02593        4.26487        0.06772
C         -0.73785        3.13122       -0.10576
N         -0.05051        1.94735        0.14209
C         -0.80408        0.80342        0.07143
C         -2.14361        0.81863       -0.25714
N         -2.62648       -0.47754       -0.29763
C         -1.61844       -1.23116       -0.01758
Br        -1.68210       -3.10929        0.09769
N         -0.42931       -0.51847        0.23360
C          0.87881       -1.11887        0.40678
O          1.64605       -1.12003       -0.77692
C          2.45438        0.05532       -0.83741
C          3.62590       -0.25313       -1.75579
O          4.37930       -1.33733       -1.27231
C          2.84730        0.33281        0.62611
O          2.80547        1.70659        0.98841
C          1.78270       -0.43806        1.46890
O          1.04544        0.37954        2.32788
N         -1.98203        3.21786       -0.43504
C         -2.83454        2.09479       -0.51511
O         -4.01093        2.20335       -0.78639
H          1.01042        4.20493       -0.16837
H         -0.44189        5.10789       -0.24753
H          0.81478        1.97744        0.67701
H          0.68365       -2.16642        0.65854
H          1.87364        0.91031       -1.22673
H          3.24334       -0.43157       -2.77879
H          4.29291        0.62386       -1.80208
H          3.76448       -2.08247       -1.19725
H          3.84561       -0.08899        0.81525
H          3.65406        2.11958        0.78628
H          2.28961       -1.24501        2.02757
H          1.65354        1.03043        2.70964
