33
elec13_conf-75.log	Energy: -2267108.1459606
N          3.35190        2.63606       -0.14410
C          1.99310        2.52396        0.01634
N          1.49213        1.27361       -0.32074
C          0.13388        1.12789       -0.22197
C         -0.70040        2.15523        0.17518
N         -2.01084        1.70789        0.17536
C         -1.95283        0.47235       -0.19799
Br        -3.41053       -0.69796       -0.41624
N         -0.65688        0.03024       -0.47616
C         -0.23365       -1.33554       -0.74797
O          1.12725       -1.32930       -1.13060
C          1.91900       -1.79575       -0.03288
C          3.31798       -2.04415       -0.54591
O          3.86742       -0.83306       -1.05307
C          1.07700       -2.93875        0.51264
O          1.48995       -3.28969        1.81367
C         -0.32724       -2.27049        0.49880
O         -0.49248       -1.51245        1.65890
N          1.27665        3.52198        0.41591
C         -0.13213        3.47480        0.51114
O         -0.78150        4.44124        0.85115
H          3.91661        1.79499       -0.08585
H          3.74897        3.48249        0.24579
H          2.07187        0.58258       -0.78302
H         -0.83417       -1.72096       -1.58458
H          1.97356       -1.02005        0.75327
H          3.95029       -2.37979        0.28971
H          3.31194       -2.83704       -1.31523
H          3.60473       -0.75311       -1.97971
H          1.11084       -3.79819       -0.18023
H          1.20738       -4.19262        2.00840
H         -1.14634       -3.00070        0.36943
H          0.02875       -1.94867        2.35367
