33
elec13_conf-102.log	Energy: -2267108.5883862
N         -1.25123       -4.19116       -0.22989
C         -1.68979       -2.89852       -0.04319
N         -0.69631       -1.93514       -0.18531
C         -1.13239       -0.64237       -0.09630
C         -2.44281       -0.29535        0.15236
N         -2.55075        1.08459        0.21871
C         -1.35726        1.53658        0.03540
Br        -0.87583        3.35601       -0.01691
N         -0.40114        0.52573       -0.18448
C          1.02807        0.67625       -0.20499
O          1.60850       -0.04002        0.87891
C          2.85317       -0.62891        0.48811
C          3.86812       -0.35088        1.58313
O          3.46593       -0.89259        2.81017
C          3.17378       -0.02743       -0.89123
O          3.86987       -0.88228       -1.76622
C          1.76789        0.19904       -1.45985
O          1.25762       -1.03125       -1.92599
N         -2.93225       -2.65386        0.20994
C         -3.46458       -1.34827        0.29645
O         -4.64564       -1.14946        0.48341
H         -0.32250       -4.41827        0.11015
H         -1.96210       -4.87869       -0.00225
H          0.14503       -2.10667       -0.73543
H          1.21376        1.75637       -0.09020
H          2.71744       -1.72093        0.38238
H          4.83398       -0.81463        1.31645
H          4.03159        0.74641        1.63907
H          2.58011       -0.54524        2.99250
H          3.68966        0.94486       -0.77361
H          4.74316       -1.08705       -1.40938
H          1.73749        0.96512       -2.25374
H          1.99258       -1.46879       -2.38838
