33
elec13_conf-96.log	Energy: -2267107.1975177
N          0.88067       -4.20396        0.07683
C          1.39125       -2.93045       -0.05022
N          0.47351       -1.92205        0.19997
C          0.94711       -0.64526        0.08685
C          2.24767       -0.37279       -0.28838
N          2.44417        0.99695       -0.32899
C          1.31328        1.52052       -0.00378
Br         0.98343        3.37019        0.12935
N          0.30854        0.57152        0.28796
C         -1.09584        0.89746        0.46583
O         -1.84174        0.83818       -0.72381
C         -2.39026       -0.47076       -0.88332
C         -3.61953       -0.33726       -1.76726
O         -4.57069        0.51945       -1.18657
C         -2.68259       -0.97431        0.54876
O         -2.28559       -2.31801        0.75640
C         -1.85920       -0.02114        1.46417
O         -1.05782       -0.74198        2.35149
N          2.61793       -2.74912       -0.41552
C          3.18248       -1.47121       -0.59564
O          4.32948       -1.31868       -0.95964
H          0.15419       -4.35256        0.76933
H          1.60090       -4.91786        0.05353
H         -0.46249       -2.14389        0.54832
H         -1.10689        1.94347        0.79273
H         -1.64947       -1.14364       -1.35382
H         -3.30455        0.00408       -2.77184
H         -4.09099       -1.32669       -1.88986
H         -4.12505        1.36910       -1.05279
H         -3.75406       -0.85095        0.76721
H         -2.87029       -2.89607        0.24888
H         -2.57197        0.62917        2.00159
H         -0.50826       -0.12458        2.85272
