33
elec13_conf-18.log	Energy: -2267110.4200926
N          2.77482       -3.40968       -0.19882
C          2.65400       -2.04078       -0.23638
N          1.34393       -1.58045       -0.20999
C          1.20905       -0.22420       -0.14938
C          2.27979        0.64784       -0.15144
N          1.81287        1.95105       -0.09858
C          0.52567        1.86040       -0.07953
Br        -0.67579        3.30734        0.03557
N          0.05821        0.53410       -0.10343
C         -1.30871        0.07427       -0.13272
O         -1.47834       -0.85043       -1.18480
C         -2.31126       -1.93707       -0.76957
C         -3.76655       -1.66289       -1.13111
O         -4.26245       -0.50239       -0.48774
C         -2.05570       -2.08544        0.73007
O         -0.90818       -2.89748        0.91886
C         -1.77021       -0.63970        1.18502
O         -0.80377       -0.68822        2.20342
N          3.70608       -1.28889       -0.25548
C          3.65563        0.11896       -0.19346
O          4.66008        0.79873       -0.18199
H          2.03827       -3.96892       -0.61425
H          3.72035       -3.73385       -0.36881
H          0.55563       -2.19735        0.01310
H         -1.92016        0.97221       -0.29832
H         -1.96728       -2.84175       -1.29575
H         -3.84800       -1.58583       -2.22895
H         -4.38430       -2.51930       -0.81135
H         -4.14184        0.25064       -1.07853
H         -2.92127       -2.51899        1.25816
H         -0.52864       -2.63188        1.77577
H         -2.70489       -0.16851        1.52407
H         -0.44542        0.19368        2.37290
