33
elec13_conf-139.log	Energy: -2267107.0415816
N          2.74594       -3.43047       -0.55721
C          2.61889       -2.08430       -0.31829
N          1.28609       -1.62217       -0.42808
C          1.16860       -0.24290       -0.32017
C          2.22151        0.60410       -0.05416
N          1.75570        1.90267        0.02594
C          0.47838        1.82361       -0.17849
Br        -0.71837        3.26714       -0.22002
N          0.03272        0.52125       -0.41202
C         -1.34848        0.06262       -0.44439
O         -1.40987       -1.18379       -1.10790
C         -2.00658       -2.19839       -0.26600
C         -3.44245       -2.43942       -0.72347
O         -4.22922       -1.27090       -0.67255
C         -1.85039       -1.68488        1.16465
O         -0.62312       -2.04832        1.76828
C         -1.93254       -0.15214        0.99614
O         -1.26408        0.54102        1.99427
N          3.63849       -1.35300       -0.04520
C          3.58426        0.05970        0.08042
O          4.58132        0.71212        0.28570
H          1.99007       -4.03944       -0.26266
H          3.67917       -3.78379       -0.37301
H          0.69446       -2.06314       -1.13108
H         -1.91783        0.82047       -1.00119
H         -1.43166       -3.13100       -0.39902
H         -3.41785       -2.87066       -1.74133
H         -3.91078       -3.18430       -0.05993
H         -4.00365       -0.72689       -1.43841
H         -2.64606       -2.05745        1.82449
H          0.09553       -2.01281        1.10934
H         -2.98659        0.15540        0.97289
H         -0.60189       -0.07340        2.35699
