33
elec13_conf-56.log	Energy: -2267108.4637063
N         -0.79441        4.27871        0.20229
C         -1.39057        3.05098        0.01420
N         -0.52286        1.97162        0.14721
C         -1.11956        0.74332        0.06643
C         -2.46509        0.56300       -0.16900
N         -2.74640       -0.79291       -0.22490
C         -1.61704       -1.38946       -0.04836
Br        -1.37081       -3.25512        0.01327
N         -0.53882       -0.50622        0.15844
C          0.86125       -0.83847        0.13195
O          1.48057       -0.27991       -1.02722
C          2.72018        0.30911       -0.67785
C          3.76597        0.07346       -1.74947
O          4.97006        0.60659       -1.21256
C          3.09531       -0.31535        0.67478
O          3.95588        0.47419        1.44934
C          1.71661       -0.40465        1.33503
O          1.36737        0.87535        1.82087
N         -2.65539        2.96433       -0.23156
C         -3.34712        1.73508       -0.31282
O         -4.54467        1.68605       -0.49533
H          0.15649        4.38933       -0.13358
H         -1.41408        5.05087       -0.01984
H          0.32919        2.03153        0.70733
H          0.89894       -1.93693        0.07032
H          2.60361        1.40009       -0.52914
H          3.84381       -1.01273       -1.94625
H          3.47453        0.57252       -2.69122
H          5.69543        0.46582       -1.83259
H          3.49935       -1.33401        0.51268
H          4.68400        0.73805        0.86115
H          1.66004       -1.15507        2.14206
H          2.19883        1.25072        2.16385
