33
elec13_conf-30.log	Energy: -2267108.0111088
N         -0.38636        4.26884        0.04005
C         -1.04587        3.05981       -0.06179
N         -0.25110        1.95293        0.19529
C         -0.87009        0.73596        0.09541
C         -2.19668        0.61644       -0.26871
N         -2.54918       -0.72095       -0.30769
C         -1.48144       -1.37022        0.00668
Br        -1.36414       -3.24549        0.12871
N         -0.37305       -0.54309        0.28442
C          0.98300       -1.02694        0.45577
O          1.72694       -1.01322       -0.74278
C          2.40429        0.23589       -0.87683
C          3.58659        0.00716       -1.80515
O          4.45925       -0.96379       -1.28391
C          2.79064        0.62765        0.56371
O          2.57341        1.99946        0.87486
C          1.85448       -0.23625        1.46524
O          1.07385        0.49891        2.35756
N         -2.28659        3.01935       -0.41577
C         -2.99931        1.81258       -0.57840
O         -4.15869        1.79575       -0.93344
H          0.33431        4.34808        0.74998
H         -1.02465        5.05699        0.00401
H          0.70547        2.06521        0.52773
H          0.87953       -2.07589        0.75153
H          1.72903        1.00315       -1.29799
H          3.20702       -0.26418       -2.80854
H          4.15541        0.94595       -1.91176
H          3.93060       -1.76654       -1.16178
H          3.84092        0.35467        0.74516
H          3.26668        2.53474        0.46656
H          2.47597       -0.97960        1.99623
H          1.61709        1.22050        2.70620
