33
elec13_conf-144.log	Energy: -2267100.5258747
N         -4.19626       -2.66816       -0.21758
C         -3.63036       -1.41722       -0.13443
N         -2.25027       -1.41147       -0.35958
C         -1.65247       -0.18662       -0.16460
C         -2.34476        0.94883        0.19098
N         -1.46763        2.01136        0.26442
C         -0.30660        1.54129       -0.06313
Br         1.24178        2.61408       -0.01422
N         -0.32420        0.15560       -0.33847
C          0.62262       -0.66324       -1.12550
O          1.88146       -0.06886       -1.19468
C          2.62973       -0.53699       -0.08451
C          4.08825       -0.16026       -0.20534
O          4.73112       -0.86674        0.84748
C          2.36339       -2.04082       -0.11029
O          2.54184       -2.67847        1.12727
C          0.86494       -2.09762       -0.51377
O          0.06814       -2.39827        0.59574
N         -4.35024       -0.38861        0.16331
C         -3.80132        0.88977        0.40877
O         -4.49199        1.82658        0.74730
H         -3.81196       -3.31284       -0.89968
H         -5.20892       -2.65123       -0.16170
H         -1.71068       -2.22319       -0.05001
H          0.22940       -0.72509       -2.15190
H          2.22649       -0.12576        0.86009
H          4.46258       -0.46663       -1.20088
H          4.20866        0.93298       -0.10940
H          5.67308       -0.66000        0.85424
H          2.98053       -2.50592       -0.90060
H          3.38796       -2.35662        1.48260
H          0.69529       -2.84482       -1.30709
H          0.68041       -2.62131        1.32349
