33
elec13_conf-186.log	Energy: -2267106.7920964
N         -4.16255       -1.07295       -0.19128
C         -2.86448       -1.53454       -0.10254
N         -1.91378       -0.61841       -0.51929
C         -0.60959       -0.98144       -0.32301
C         -0.24910       -2.21739        0.18460
N          1.12997       -2.30003        0.25526
C          1.56277       -1.16197       -0.17629
Br         3.37696       -0.65864       -0.33861
N          0.55259       -0.27704       -0.55548
C          0.67521        1.13182       -0.94415
O         -0.61375        1.63855       -1.16406
C         -1.02664        2.32932        0.02341
C         -2.33980        3.01732       -0.26115
O         -3.36512        2.05810       -0.49687
C          0.22589        3.14046        0.36210
O          0.24066        3.71947        1.62503
C          1.30841        2.03942        0.17342
O          1.41733        1.40836        1.42407
N         -2.60539       -2.70163        0.38634
C         -1.29159       -3.18737        0.57170
O         -1.07539       -4.29521        1.01397
H         -4.37755       -0.42264       -0.94120
H         -4.85040       -1.80531       -0.04926
H         -2.17143        0.29091       -0.89656
H          1.24376        1.18998       -1.88427
H         -1.18420        1.60536        0.84838
H         -2.58392        3.69161        0.57801
H         -2.25103        3.62093       -1.17724
H         -3.64913        1.68509        0.35045
H          0.35586        3.92997       -0.39718
H          0.58595        3.03796        2.22725
H          2.27512        2.44614       -0.15955
H          2.23112        0.88479        1.45818
