33
elec13_conf-1.log	Energy: -2267109.8280813
N          2.74871       -3.42143       -0.27456
C          2.63917       -2.05655       -0.21179
N          1.33580       -1.58149       -0.16146
C          1.21096       -0.22468       -0.11780
C          2.28676        0.63915       -0.14647
N          1.82790        1.94634       -0.10071
C          0.54042        1.86604       -0.06107
Br        -0.65301        3.31721        0.04504
N          0.06395        0.54100       -0.05340
C         -1.30196        0.07797       -0.12498
O         -1.42050       -0.84886       -1.18344
C         -2.31463       -1.89832       -0.81737
C         -3.74477       -1.56999       -1.21226
O         -4.18543       -0.46979       -0.44039
C         -2.09897       -2.08486        0.68592
O         -0.96373       -2.91086        0.88574
C         -1.79166       -0.65031        1.17530
O         -0.83727       -0.73045        2.20771
N          3.69667       -1.31095       -0.23639
C          3.65755        0.09753       -0.21607
O          4.66647        0.77047       -0.24463
H          1.98915       -4.00408        0.05504
H          3.68974       -3.77407       -0.14939
H          0.52174       -2.19389       -0.06575
H         -1.92687        0.96168       -0.30897
H         -1.99661       -2.80407       -1.35618
H         -3.75189       -1.34074       -2.29346
H         -4.37356       -2.46786       -1.04702
H         -5.03058       -0.15482       -0.78252
H         -2.98263       -2.51401        1.18686
H         -0.56333       -2.58698        1.71517
H         -2.71535       -0.16522        1.52031
H         -0.28939        0.06758        2.21477
