33
elec13_conf-114.log	Energy: -2267107.0833110
N          0.23718       -4.38976       -0.35509
C          0.94840       -3.22976       -0.18305
N          0.25614       -2.06406       -0.49506
C          0.94530       -0.89833       -0.30502
C          2.24222       -0.85961        0.17258
N          2.66625        0.45481        0.23924
C          1.66711        1.16270       -0.17778
Br         1.63157        3.04024       -0.33852
N          0.55431        0.39700       -0.54964
C         -0.79693        0.89788       -0.77367
O         -1.63628       -0.16005       -1.19953
C         -2.68591       -0.37554       -0.24544
C         -3.94114       -0.91575       -0.90933
O         -4.90706       -1.21125        0.06609
C         -2.87480        1.00303        0.39890
O         -3.59868        0.98709        1.59504
C         -1.42300        1.47344        0.53026
O         -0.92696        0.85054        1.69094
N          2.15392       -3.26350        0.28126
C          2.93348       -2.11420        0.52424
O          4.05731       -2.18254        0.97319
H         -0.51267       -4.42342       -1.03494
H          0.79799       -5.22956       -0.26787
H         -0.65594       -2.03970       -0.93507
H         -0.74755        1.66592       -1.56142
H         -2.35294       -1.08929        0.53209
H         -4.29326       -0.17843       -1.66117
H         -3.71537       -1.84715       -1.45492
H         -4.92258       -0.48506        0.71024
H         -3.41088        1.65476       -0.31158
H         -2.97872        0.70359        2.28841
H         -1.31856        2.56803        0.57495
H         -0.06426        1.21711        1.92866
