33
elec13_conf-41.log	Energy: -2267108.2950380
N          1.19657       -4.15941       -0.20858
C          1.64299       -2.86605       -0.18454
N          0.63933       -1.90717       -0.12913
C          1.06974       -0.61442       -0.11507
C          2.40042       -0.25530       -0.17986
N          2.50660        1.12649       -0.15998
C          1.29783        1.57212       -0.10236
Br         0.79359        3.38350       -0.00817
N          0.32743        0.55004       -0.05585
C         -1.10922        0.68379       -0.11502
O         -1.62181       -0.13059       -1.14534
C         -2.82943       -0.76328       -0.72394
C         -4.03826        0.08994       -1.10000
O         -5.19015       -0.60772       -0.69174
C         -2.67490       -0.97222        0.77802
O         -1.92901       -2.15508        1.01297
C         -1.84329        0.25956        1.20566
O         -0.99775       -0.10943        2.26479
N          2.91006       -2.60753       -0.24448
C          3.43826       -1.30243       -0.25361
O          4.63101       -1.08864       -0.30888
H          0.26058       -4.38558        0.10231
H          1.91480       -4.86368       -0.09551
H         -0.34496       -2.13953        0.03578
H         -1.29997        1.74706       -0.32344
H         -2.90163       -1.73385       -1.23631
H         -3.95932        1.08500       -0.61333
H         -4.00195        0.26023       -2.19221
H         -5.97334       -0.12250       -0.97789
H         -3.65320       -1.02356        1.28025
H         -1.45652       -1.99586        1.85118
H         -2.51224        1.08146        1.51315
H         -0.17086        0.39252        2.21806
