33
elec13_conf-60.log	Energy: -2267110.3069903
N          2.42924       -3.81529       -0.10068
C          2.49385       -2.44098       -0.17344
N          1.27442       -1.80159        0.01542
C          1.33635       -0.43689        0.03769
C          2.50183        0.27525       -0.14878
N          2.22601        1.63260       -0.10387
C          0.95433        1.72338        0.08604
Br        -0.00961        3.33240        0.25671
N          0.31201        0.47445        0.20468
C         -1.10390        0.23466        0.20622
O         -1.48262       -0.44812       -0.98350
C         -2.60891       -1.29536       -0.73721
C         -3.69440       -0.96497       -1.75158
O         -4.03774        0.39937       -1.69096
C         -3.02779       -1.01673        0.71508
O         -3.53690       -2.19548        1.30658
C         -1.69984       -0.57946        1.35625
O         -0.95060       -1.73987        1.64849
N          3.62280       -1.84515       -0.37189
C          3.77470       -0.44147       -0.34659
O          4.85582        0.08878       -0.48812
H          1.59800       -4.26185       -0.47351
H          3.30193       -4.25969       -0.36634
H          0.49063       -2.24473        0.49601
H         -1.57077        1.23313        0.23652
H         -2.30618       -2.35437       -0.82490
H         -3.35677       -1.26393       -2.76178
H         -4.59629       -1.55105       -1.51263
H         -3.24638        0.89387       -1.94996
H         -3.76058       -0.19390        0.72887
H         -4.17576       -1.95941        1.99149
H         -1.82254        0.04729        2.25757
H         -1.61132       -2.41646        1.88613
