33
elec13_conf-9.log	Energy: -2267110.0447478
N          2.19567       -3.76176       -0.20543
C          2.28165       -2.39238       -0.27251
N          1.06127       -1.73558       -0.16552
C          1.13833       -0.37391       -0.13984
C          2.32477        0.32381       -0.24554
N          2.06626        1.68425       -0.20401
C          0.78601        1.79579       -0.09280
Br        -0.17169        3.40983        0.05868
N          0.12157        0.55494       -0.03769
C         -1.29593        0.30933        0.03472
O         -1.66969       -0.62296       -0.95905
C         -2.64186       -1.54339       -0.43615
C         -4.04313       -1.00632       -0.71647
O         -4.20312       -0.72920       -2.07875
C         -2.29862       -1.68720        1.03953
O         -1.27132       -2.64931        1.18642
C         -1.77129       -0.28146        1.40877
O         -0.76610       -0.42926        2.37486
N          3.43049       -1.81007       -0.38750
C          3.59875       -0.41071       -0.36421
O          4.69180        0.10838       -0.44051
H          1.35377       -4.21003       -0.54905
H          3.06601       -4.23130       -0.42930
H          0.20727       -2.22018        0.12875
H         -1.77878        1.28218       -0.13985
H         -2.49648       -2.49275       -0.97189
H         -4.79040       -1.76404       -0.42984
H         -4.23353       -0.11167       -0.08280
H         -3.40801       -0.25172       -2.36097
H         -3.17782       -1.96829        1.64513
H         -0.79507       -2.41404        2.00311
H         -2.59784        0.34359        1.78911
H         -0.19129        0.34915        2.38814
