33
elec13_conf-26.log	Energy: -2267106.4724242
N          2.35935        3.41589        0.26105
C          1.08646        2.91232        0.09335
N          0.97816        1.54846        0.31407
C         -0.26882        1.01010        0.14140
C         -1.34743        1.77584       -0.25484
N         -2.46965        0.97474       -0.37008
C         -2.07847       -0.21527       -0.06739
Br        -3.19084       -1.73441       -0.03986
N         -0.71266       -0.29674        0.27411
C          0.00570       -1.54258        0.47344
O          0.63042       -2.01631       -0.70273
C          1.90885       -1.41487       -0.78428
C          2.81705       -2.15088       -1.74477
O          4.08174       -1.52396       -1.58366
C          2.43952       -1.41672        0.65943
O          3.18865       -0.25838        0.98046
C          1.14636       -1.48325        1.52656
O          0.98427       -0.41464        2.41038
N          0.12226        3.68492       -0.28365
C         -1.18745        3.21749       -0.51569
O         -2.07549        3.95514       -0.88843
H          2.95422        2.97781        0.95597
H          2.38057        4.43000        0.25997
H          1.77008        1.01193        0.66839
H         -0.75672       -2.28008        0.74227
H          1.82783       -0.36664       -1.12368
H          2.84524       -3.22384       -1.47266
H          2.43553       -2.06720       -2.77778
H          4.71444       -1.90314       -2.20503
H          3.05038       -2.31815        0.83365
H          3.93718       -0.24717        0.36046
H          1.13280       -2.44836        2.06333
H          1.83846       -0.23950        2.83058
