33
elec13_conf-19.log	Energy: -2267110.2365774
N          2.76152       -3.41433       -0.20274
C          2.64649       -2.04436       -0.23421
N          1.33938       -1.57792       -0.21558
C          1.20996       -0.22120       -0.15315
C          2.28389        0.64675       -0.14435
N          1.82045        1.95145       -0.08975
C          0.53220        1.86497       -0.07869
Br        -0.66736        3.31219        0.03000
N          0.06177        0.54059       -0.10941
C         -1.30219        0.07380       -0.14101
O         -1.44902       -0.85980       -1.19053
C         -2.33327       -1.90504       -0.79330
C         -3.77392       -1.57848       -1.15049
O         -4.19448       -0.47648       -0.36991
C         -2.07832       -2.08352        0.70489
O         -0.94701       -2.92246        0.87028
C         -1.75244       -0.64935        1.17757
O         -0.76483       -0.73760        2.17503
N          3.70190       -1.29669       -0.24104
C          3.65740        0.11158       -0.17641
O          4.66549        0.78603       -0.15488
H          2.02536       -3.96776       -0.62665
H          3.70661       -3.74064       -0.37107
H          0.54205       -2.19304       -0.02535
H         -1.93532        0.95416       -0.31316
H         -2.03138       -2.81559       -1.33330
H         -3.81009       -1.35195       -2.23171
H         -4.39785       -2.47605       -0.96605
H         -5.04857       -0.16278       -0.69031
H         -2.95092       -2.50416        1.23178
H         -0.54445       -2.66163        1.71842
H         -2.66503       -0.16112        1.54835
H         -0.34788        0.12384        2.31373
