33
elec13_conf-180.log	Energy: -2267105.9755936
N          4.00118        2.78491        0.07874
C          3.50838        1.50169        0.03790
N          2.12603        1.42658       -0.11760
C          1.60006        0.16236       -0.06761
C          2.37876       -0.96777        0.08267
N          1.58015       -2.09676        0.03345
C          0.37960       -1.66603       -0.14878
Br        -1.16313       -2.73374       -0.30344
N          0.29171       -0.26213       -0.23241
C         -0.94462        0.44039       -0.41356
O         -1.71154        0.41118        0.78687
C         -2.88733        1.21612        0.51664
C         -4.03525        0.28602        0.14370
O         -4.24770       -0.68559        1.12699
C         -2.46644        2.21799       -0.60388
O         -2.75483        3.55720       -0.34832
C         -0.94878        1.93486       -0.72114
O         -0.27918        2.67867        0.29583
N          4.29662        0.48874        0.17475
C          3.83960       -0.84384        0.24677
O          4.59669       -1.77467        0.41438
H          3.54156        3.49091       -0.48605
H          5.01501        2.81975        0.06824
H          1.51724        2.23013        0.04761
H         -1.48872       -0.08311       -1.22005
H         -3.13023        1.75132        1.44649
H         -4.95814        0.87939        0.03803
H         -3.82772       -0.16610       -0.85056
H         -3.39705       -1.12925        1.26743
H         -2.96707        1.95051       -1.54960
H         -2.03368        3.90063        0.20289
H         -0.51012        2.21753       -1.68688
H         -0.49276        2.24501        1.14225
