33
elec13_conf-49.log	Energy: -2267103.8742464
N         -3.99371       -2.86170       -0.12836
C         -3.48445       -1.58795       -0.19234
N         -2.08628       -1.54325       -0.26812
C         -1.56824       -0.27059       -0.21284
C         -2.32936        0.87348       -0.11547
N         -1.49047        1.96979       -0.08821
C         -0.28841        1.49777       -0.19430
Br         1.24508        2.58342       -0.02686
N         -0.24399        0.09859       -0.28207
C          0.81514       -0.85580       -0.69619
O          1.98142       -0.21263       -1.07449
C          3.03715       -0.39095       -0.10706
C          4.16892       -1.18199       -0.73686
O          3.75033       -2.51453       -0.93997
C          2.38262       -1.06264        1.10362
O          1.88371       -0.16467        2.07886
C          1.20913       -1.81946        0.45653
O          0.18123       -2.11776        1.35584
N         -4.26522       -0.56156       -0.14772
C         -3.79900        0.77006       -0.05784
O         -4.56019        1.70712        0.04383
H         -3.50696       -3.59363       -0.63382
H         -5.00603       -2.89348       -0.18122
H         -1.54791       -2.26241        0.22029
H          0.39996       -1.39920       -1.56055
H          3.42226        0.60566        0.16312
H          4.43415       -0.68343       -1.68782
H          5.04777       -1.12303       -0.06384
H          4.43104       -2.98832       -1.43231
H          3.06853       -1.75167        1.61595
H          1.70133        0.70037        1.67720
H          1.57992       -2.74796        0.00436
H          0.20272       -1.40730        2.02418
