33
elec13_conf-98.log	Energy: -2267107.4429116
N         -2.86596        3.15314       -0.08669
C         -1.53762        2.79942        0.04806
N         -1.26632        1.47459       -0.25794
C          0.03947        1.08656       -0.12892
C          1.02207        1.95238        0.30853
N          2.23633        1.29070        0.35718
C          1.98962        0.08453       -0.02277
Br         3.27915       -1.28049       -0.16314
N          0.63757       -0.14197       -0.35701
C          0.07047       -1.45311       -0.60664
O         -0.47870       -2.04982        0.54522
C         -1.85855       -1.70220        0.65819
C         -2.51092       -2.74506        1.54779
O         -1.95551       -2.75458        2.83131
C         -2.37405       -1.63927       -0.79048
O         -3.21348       -0.52549       -1.06599
C         -1.07508       -1.50220       -1.65103
O         -1.05283       -0.38732       -2.48807
N         -0.67143        3.65793        0.47115
C          0.68936        3.34180        0.66900
O          1.48274        4.15742        1.08818
H         -3.38709        2.72196       -0.84322
H         -3.00398        4.15533       -0.00553
H         -1.98979        0.86747       -0.64045
H          0.91516       -2.07808       -0.91396
H         -1.95976       -0.70657        1.12744
H         -3.58564       -2.51626        1.65092
H         -2.42779       -3.73031        1.04076
H         -0.99676       -2.84287        2.72608
H         -2.89794       -2.57349       -1.05541
H         -4.05456       -0.63540       -0.60195
H         -0.94125       -2.43731       -2.22375
H         -1.91845       -0.30694       -2.91321
