33
elec13_conf-81.log	Energy: -2267109.4641321
N          2.82259       -3.35832       -0.33684
C          2.69161       -1.98683       -0.27469
N          1.38130       -1.54782       -0.10404
C          1.22036       -0.18877       -0.08892
C          2.26722        0.69876       -0.21878
N          1.78245        1.99375       -0.13814
C          0.50795        1.88037        0.02806
Br        -0.70235        3.31039        0.19463
N          0.06768        0.54509        0.07877
C         -1.27564        0.06426        0.20186
O         -1.63027       -0.66892       -0.96556
C         -2.52920       -1.72237       -0.60394
C         -3.96574       -1.19936       -0.61666
O         -4.26065       -0.60844       -1.85013
C         -2.03206       -2.20292        0.75690
O         -0.90204       -3.06407        0.62649
C         -1.54471       -0.89479        1.42722
O         -0.49739       -1.04527        2.32379
N          3.71804       -1.21695       -0.40078
C          3.63653        0.19535       -0.42433
O          4.61709        0.88786       -0.58764
H          2.20896       -3.90858        0.25527
H          3.79313       -3.65486       -0.32464
H          0.58767       -2.18420       -0.18789
H         -1.90396        0.96161        0.29485
H         -2.42563       -2.49903       -1.37796
H         -4.66460       -2.03799       -0.46173
H         -4.11792       -0.49586        0.23078
H         -3.50596       -0.04250       -2.07526
H         -2.81602       -2.69677        1.35350
H         -1.19925       -3.93484        0.33210
H         -2.38285       -0.46383        1.99415
H          0.13225       -1.68833        1.96620
