33
elec13_conf-141.log	Energy: -2267100.7254478
N         -4.20790       -2.65184       -0.20597
C         -3.63587       -1.40381       -0.12466
N         -2.25691       -1.40447       -0.36023
C         -1.65258       -0.18210       -0.16886
C         -2.33672        0.95588        0.19440
N         -1.45399        2.01392        0.26374
C         -0.29779        1.53897       -0.07359
Br         1.25579        2.60588       -0.03323
N         -0.32455        0.15458       -0.35280
C          0.61699       -0.67111       -1.13838
O          1.87897       -0.08149       -1.20640
C          2.62333       -0.55574       -0.09576
C          4.08978       -0.19071       -0.19185
O          4.77379       -0.83290        0.88260
C          2.35243       -2.05821       -0.13834
O          2.55255       -2.71925        1.08345
C          0.85062       -2.10472       -0.52107
O          0.06583       -2.38240        0.60403
N         -4.34835       -0.37237        0.18050
C         -3.79163        0.90277        0.42504
O         -4.47469        1.84153        0.77305
H         -3.83231       -3.29673       -0.89272
H         -5.21997       -2.63098       -0.14092
H         -1.72092       -2.21834       -0.05051
H          0.22409       -0.73397       -2.16479
H          2.20875       -0.14969        0.84803
H          4.50849       -0.57509       -1.13556
H          4.22590        0.90291       -0.18136
H          4.79098       -0.23210        1.63871
H          2.95643       -2.50833       -0.94739
H          3.42198       -2.42822        1.40871
H          0.66114       -2.85745       -1.30480
H          0.68171       -2.64760        1.31343
