33
elec13_conf-80.log	Energy: -2267108.0932624
N         -0.59782        4.33330       -0.23963
C         -1.24377        3.12243       -0.08437
N         -0.42401        2.01260       -0.25570
C         -1.05820        0.80189       -0.17554
C         -2.41139        0.66889        0.06630
N         -2.74538       -0.67436        0.07479
C         -1.64281       -1.30629       -0.15796
Br        -1.43862       -3.17424       -0.26502
N         -0.54170       -0.45971       -0.33834
C          0.84673       -0.84678       -0.44629
O          1.57912        0.18185       -1.11367
C          2.76107        0.49287       -0.37728
C          3.93846        0.75353       -1.30218
O          5.10757        0.93983       -0.51098
C          2.98223       -0.70895        0.55028
O          3.72774       -0.41279        1.69700
C          1.53950       -1.06202        0.91129
O          1.03431       -0.14042        1.83873
N         -2.50769        3.07498        0.16694
C         -3.24751        1.86971        0.23029
O         -4.44569        1.86819        0.41215
H          0.33928        4.40142        0.14513
H         -1.19757        5.11509        0.00526
H          0.47099        2.06928       -0.72764
H          0.88096       -1.77275       -1.04112
H          2.58243        1.37877        0.26416
H          4.10341       -0.12979       -1.93921
H          3.74653        1.61109       -1.97023
H          5.18750        1.87623       -0.28902
H          3.43051       -1.53903       -0.03213
H          4.55922       -0.02039        1.38402
H          1.41837       -2.10554        1.25302
H          1.73601        0.00145        2.49384
