33
elec13_conf-24.log	Energy: -2267109.8821977
N          2.75979       -3.41757       -0.26431
C          2.64532       -2.05354       -0.21089
N          1.33976       -1.58349       -0.14983
C          1.20993       -0.22733       -0.10902
C          2.28231        0.64000       -0.15404
N          1.82036        1.94601       -0.11149
C          0.53430        1.86256       -0.05939
Br        -0.66020        3.31390        0.05240
N          0.06039        0.53536       -0.03865
C         -1.30860        0.07898       -0.11257
O         -1.44740       -0.83470       -1.17779
C         -2.29095       -1.92739       -0.79854
C         -3.73501       -1.65040       -1.20027
O         -4.24895       -0.49469       -0.56252
C         -2.07830       -2.08942        0.70630
O         -0.92800       -2.88856        0.93066
C         -1.81160       -0.64492        1.18273
O         -0.88216       -0.68844        2.23804
N          3.69950       -1.30402       -0.25270
C          3.65479        0.10379       -0.23683
O          4.65966        0.78172       -0.27960
H          2.00225       -4.00382        0.06294
H          3.70271       -3.76826       -0.14918
H          0.53229       -2.19865       -0.01516
H         -1.91190        0.98064       -0.28658
H         -1.92988       -2.82513       -1.32516
H         -3.78429       -1.56483       -2.29931
H         -4.36118       -2.50975       -0.90558
H         -4.12314        0.26088       -1.14887
H         -2.95593       -2.53346        1.20487
H         -0.55294       -2.55836        1.76924
H         -2.75665       -0.17740        1.49546
H         -0.35116        0.12087        2.24678
