33
elec13_conf-131.log	Energy: -2267110.3069714
N          2.42919        3.81531        0.10067
C          2.49382        2.44100        0.17344
N          1.27440        1.80159       -0.01543
C          1.33635        0.43690       -0.03769
C          2.50183       -0.27523        0.14878
N          2.22603       -1.63259        0.10387
C          0.95435       -1.72337       -0.08604
Br        -0.00958       -3.33240       -0.25670
N          0.31202       -0.47446       -0.20467
C         -1.10390       -0.23468       -0.20622
O         -1.48263        0.44811        0.98350
C         -2.60891        1.29535        0.73720
C         -3.69440        0.96498        1.75158
O         -4.03774       -0.39936        1.69098
C         -3.02779        1.01670       -0.71508
O         -3.53692        2.19544       -1.30660
C         -1.69985        0.57943       -1.35625
O         -0.95061        1.73984       -1.64851
N          3.62278        1.84518        0.37189
C          3.77469        0.44150        0.34659
O          4.85582       -0.08873        0.48812
H          1.59795        4.26186        0.47350
H          3.30188        4.25973        0.36633
H          0.49061        2.24473       -0.49602
H         -1.57076       -1.23316       -0.23651
H         -2.30618        2.35436        0.82487
H         -3.35676        1.26396        2.76178
H         -4.59629        1.55106        1.51263
H         -3.24638       -0.89386        1.94999
H         -3.76059        0.19386       -0.72885
H         -4.17577        1.95935       -1.99151
H         -1.82255       -0.04734       -2.25757
H         -1.61134        2.41642       -1.88616
