33
elec13_conf-57.log	Energy: -2267109.2392390
N          1.59269       -4.04978       -0.24773
C          1.92763       -2.71139       -0.19968
N          0.83832       -1.85243       -0.12068
C          1.14406       -0.51962       -0.10457
C          2.43703       -0.04198       -0.16647
N          2.41655        1.34187       -0.11703
C          1.17097        1.66981       -0.03675
Br         0.51176        3.42906        0.06238
N          0.30170        0.56505       -0.01944
C         -1.13114        0.56860        0.02116
O         -1.64167       -0.08993       -1.13021
C         -2.84167       -0.77013       -0.79111
C         -4.06804        0.14371       -0.91314
O         -5.25736       -0.54746       -0.60310
C         -2.62431       -1.27789        0.63375
O         -1.83831       -2.47212        0.65112
C         -1.76975       -0.15514        1.27113
O         -0.87118       -0.59226        2.23493
N          3.16071       -2.33768       -0.26123
C          3.56406       -0.98216       -0.28653
O          4.72993       -0.66578       -0.38605
H          0.79546       -4.34535        0.30630
H          2.40555       -4.65140       -0.16183
H         -0.12093       -2.18978       -0.19054
H         -1.42575        1.62798        0.01800
H         -2.94937       -1.61454       -1.49280
H         -3.98990        0.97856       -0.19729
H         -4.07452        0.58929       -1.92411
H         -5.51124       -1.08446       -1.36473
H         -3.57419       -1.43743        1.16312
H         -2.42023       -3.23717        0.56213
H         -2.44089        0.56871        1.75734
H         -0.59961       -1.49317        2.00351
