33
elec13_conf-21.log	Energy: -2267109.3456332
N          1.22684       -4.15177       -0.15016
C          1.66562       -2.85054       -0.21201
N          0.65107       -1.90222       -0.18633
C          1.07340       -0.60575       -0.15066
C          2.40365       -0.23703       -0.17488
N          2.50011        1.14465       -0.14205
C          1.28594        1.58038       -0.11329
Br         0.76789        3.38822       -0.01349
N          0.32440        0.55244       -0.11042
C         -1.11117        0.67634       -0.12385
O         -1.65026       -0.12370       -1.15428
C         -2.84961       -0.75400       -0.70886
C         -4.07361        0.11374       -1.02611
O         -5.27180       -0.48201       -0.59065
C         -2.65547       -0.99430        0.78314
O         -1.92734       -2.19705        0.96819
C         -1.80217        0.22052        1.21144
O         -0.92580       -0.19444        2.22475
N          2.93072       -2.58494       -0.25094
C          3.45079       -1.27483       -0.21461
O          4.64355       -1.05547       -0.22076
H          0.32237       -4.37373       -0.55075
H          1.96018       -4.83117       -0.31946
H         -0.31639       -2.14681        0.05183
H         -1.31794        1.74120       -0.30799
H         -2.93020       -1.71821       -1.23679
H         -3.99362        1.07947       -0.49965
H         -4.06784        0.33973       -2.10847
H         -5.46627       -1.24092       -1.15645
H         -3.62200       -1.04097        1.30889
H         -1.47931       -2.11441        1.82854
H         -2.45654        1.03717        1.56279
H         -0.21170        0.44798        2.33916
