33
elec13_conf-34.log	Energy: -2267108.4637251
N          0.79440       -4.27871        0.20230
C          1.39056       -3.05098        0.01421
N          0.52286       -1.97162        0.14722
C          1.11956       -0.74332        0.06643
C          2.46508       -0.56301       -0.16901
N          2.74640        0.79291       -0.22490
C          1.61704        1.38945       -0.04835
Br         1.37082        3.25511        0.01327
N          0.53882        0.50622        0.15844
C         -0.86124        0.83847        0.13196
O         -1.48056        0.27991       -1.02722
C         -2.72018       -0.30911       -0.67785
C         -3.76596       -0.07346       -1.74947
O         -4.97006       -0.60659       -1.21257
C         -3.09531        0.31536        0.67478
O         -3.95589       -0.47419        1.44933
C         -1.71662        0.40466        1.33503
O         -1.36738       -0.87534        1.82088
N          2.65538       -2.96433       -0.23156
C          3.34711       -1.73508       -0.31282
O          4.54466       -1.68606       -0.49534
H         -0.15650       -4.38933       -0.13357
H          1.41406       -5.05088       -0.01983
H         -0.32919       -2.03153        0.70734
H         -0.89894        1.93694        0.07033
H         -2.60361       -1.40008       -0.52914
H         -3.84380        1.01273       -1.94625
H         -3.47452       -0.57252       -2.69122
H         -5.69543       -0.46581       -1.83260
H         -3.49935        1.33402        0.51267
H         -4.68400       -0.73804        0.86115
H         -1.66004        1.15508        2.14205
H         -2.19884       -1.25071        2.16385
