33
elec13_conf-5.log	Energy: -2267108.9376391
N          1.16552       -4.16634       -0.20797
C          1.62239       -2.87536       -0.18332
N          0.62616       -1.90900       -0.12547
C          1.06620       -0.61924       -0.11277
C          2.39936       -0.27033       -0.18098
N          2.51605        1.11060       -0.16128
C          1.31088        1.56553       -0.10047
Br         0.82051        3.38034       -0.00612
N          0.33302        0.55060       -0.05187
C         -1.10202        0.69434       -0.10514
O         -1.62295       -0.10587       -1.14375
C         -2.83712       -0.72867       -0.72584
C         -4.04816        0.14116       -1.08396
O         -5.26010       -0.44882       -0.68011
C         -2.68409       -0.95622        0.77287
O         -1.95878       -2.15412        0.99844
C         -1.83578        0.25985        1.21271
O         -0.99099       -0.13769        2.26168
N          2.89079       -2.62651       -0.24669
C          3.42901       -1.32495       -0.25921
O          4.62299       -1.12080       -0.32008
H          0.23675       -4.38386        0.13045
H          1.88184       -4.87237       -0.09105
H         -0.36024       -2.13514        0.03259
H         -1.28740        1.76075       -0.30177
H         -2.90634       -1.69619       -1.24929
H         -3.98037        1.10977       -0.56105
H         -4.00998        0.36040       -2.16701
H         -5.44230       -1.20800       -1.24963
H         -3.66444       -0.99556        1.27290
H         -1.48435       -2.01111        1.83849
H         -2.49382        1.08479        1.53509
H         -0.17341        0.38082        2.24474
