33
elec13_conf-59.log	Energy: -2267108.4636373
N         -0.79436        4.27871        0.20232
C         -1.39054        3.05098        0.01422
N         -0.52285        1.97161        0.14724
C         -1.11955        0.74332        0.06644
C         -2.46508        0.56302       -0.16902
N         -2.74640       -0.79289       -0.22492
C         -1.61705       -1.38945       -0.04836
Br        -1.37084       -3.25511        0.01328
N         -0.53883       -0.50623        0.15845
C          0.86123       -0.83847        0.13196
O          1.48055       -0.27992       -1.02722
C          2.72017        0.30910       -0.67785
C          3.76595        0.07344       -1.74948
O          4.97005        0.60657       -1.21259
C          3.09531       -0.31538        0.67477
O          3.95589        0.47416        1.44932
C          1.71662       -0.40466        1.33503
O          1.36739        0.87533        1.82089
N         -2.65535        2.96435       -0.23156
C         -3.34710        1.73510       -0.31283
O         -4.54464        1.68609       -0.49537
H          0.15654        4.38932       -0.13353
H         -1.41402        5.05088       -0.01981
H          0.32920        2.03152        0.70737
H          0.89893       -1.93694        0.07033
H          2.60361        1.40007       -0.52915
H          3.84379       -1.01275       -1.94626
H          3.47450        0.57250       -2.69123
H          5.69541        0.46579       -1.83262
H          3.49933       -1.33404        0.51266
H          4.68400        0.73802        0.86113
H          1.66004       -1.15508        2.14206
H          2.19887        1.25071        2.16383
