33
elec13_conf-140.log	Energy: -2267106.1844162
N          0.53722       -4.29439       -0.52982
C          1.14721       -3.08878       -0.28413
N          0.27775       -1.98322       -0.43637
C          0.91729       -0.75654       -0.31921
C          2.25068       -0.60672       -0.00894
N          2.55508        0.73916        0.06689
C          1.44450        1.35823       -0.18317
Br         1.21439        3.21840       -0.24883
N          0.37589        0.49819       -0.44455
C         -1.03164        0.85484       -0.53016
O         -1.73013       -0.17481       -1.20277
C         -2.82107       -0.66543       -0.40032
C         -4.13469       -0.03081       -0.86995
O         -5.23731       -0.48038       -0.12245
C         -2.46230       -0.33253        1.04173
O         -1.64803       -1.29791        1.67740
C         -1.68981        0.99945        0.88925
O         -0.78996        1.22222        1.91968
N          2.39013       -3.01855        0.03075
C          3.10067       -1.79752        0.16737
O          4.28447       -1.78213        0.41283
H         -0.43629       -4.39682       -0.26379
H          1.12686       -5.09204       -0.31567
H         -0.43471       -2.04318       -1.16270
H         -1.08770        1.79200       -1.10166
H         -2.87558       -1.75928       -0.54382
H         -4.08240        1.06144       -0.73374
H         -4.24112       -0.21303       -1.95568
H         -5.42811       -1.39677       -0.36188
H         -3.36488       -0.21998        1.65655
H         -0.99998       -1.65856        1.04334
H         -2.39448        1.84495        0.84549
H         -0.59517        0.34787        2.30201
