33
elec13_conf-135.log	Energy: -2267100.7255168
N         -4.20788       -2.65186       -0.20597
C         -3.63586       -1.40383       -0.12466
N         -2.25690       -1.40448       -0.36022
C         -1.65258       -0.18211       -0.16886
C         -2.33673        0.95587        0.19440
N         -1.45400        2.01391        0.26374
C         -0.29780        1.53898       -0.07359
Br         1.25577        2.60589       -0.03322
N         -0.32455        0.15459       -0.35280
C          0.61699       -0.67109       -1.13837
O          1.87898       -0.08147       -1.20639
C          2.62334       -0.55574       -0.09575
C          4.08979       -0.19070       -0.19184
O          4.77380       -0.83291        0.88259
C          2.35244       -2.05821       -0.13836
O          2.55258       -2.71927        1.08342
C          0.85062       -2.10471       -0.52107
O          0.06585       -2.38239        0.60404
N         -4.34834       -0.37240        0.18050
C         -3.79163        0.90275        0.42504
O         -4.47471        1.84150        0.77305
H         -3.83228       -3.29675       -0.89272
H         -5.21995       -2.63101       -0.14092
H         -1.72090       -2.21835       -0.05050
H          0.22410       -0.73395       -2.16479
H          2.20876       -0.14970        0.84804
H          4.50849       -0.57506       -1.13556
H          4.22590        0.90292       -0.18133
H          4.79098       -0.23212        1.63872
H          2.95643       -2.50830       -0.94742
H          3.42201       -2.42824        1.40867
H          0.66113       -2.85744       -1.30480
H          0.68174       -2.64762        1.31342
