33
elec13_conf-152.log	Energy: -2267108.8574183
N          3.06883       -3.19687       -0.09770
C          2.83904       -1.83703       -0.12084
N          1.50390       -1.48205       -0.04112
C          1.25348       -0.14460       -0.03429
C          2.24455        0.80831       -0.15712
N          1.67601        2.07245       -0.12381
C          0.40816        1.88180        0.00322
Br        -0.88969        3.24363        0.11981
N          0.04713        0.52041        0.08521
C         -1.28577       -0.01770        0.06759
O         -1.55348       -0.64039       -1.17687
C         -2.35107       -1.80319       -0.97886
C         -3.83794       -1.47341       -1.09208
O         -4.25832       -0.53284       -0.12231
C         -1.91931       -2.35756        0.38901
O         -0.74329       -3.14951        0.28168
C         -1.59358       -1.07986        1.18293
O         -0.55577       -1.30614        2.09000
N          3.82291       -1.00636       -0.24610
C          3.65003        0.39164       -0.31173
O          4.58525        1.14943       -0.46538
H          2.44960       -3.75831        0.47822
H          4.05355       -3.42001        0.00207
H          0.75526       -2.17148        0.07933
H         -1.94515        0.84992        0.20368
H         -2.09351       -2.51986       -1.77820
H         -4.03817       -1.11696       -2.11739
H         -4.42384       -2.39689       -0.94239
H         -4.17310        0.35259       -0.49650
H         -2.72022       -2.93757        0.87654
H         -0.92771       -3.89975       -0.29865
H         -2.52228       -0.76103        1.68246
H         -0.34724       -0.47548        2.53832
