33
elec13_conf-29.log	Energy: -2267106.2415635
N          2.22049        3.48883        0.30651
C          0.98233        2.93926        0.05894
N          0.92195        1.56735        0.27042
C         -0.31768        1.00022        0.12281
C         -1.42656        1.73456       -0.24345
N         -2.52203        0.89678       -0.35778
C         -2.08436       -0.28437       -0.08264
Br        -3.14333       -1.84108       -0.05650
N         -0.71229       -0.32267        0.23565
C          0.05970       -1.53760        0.42418
O          0.73301       -1.95377       -0.74625
C          2.00270       -1.32713       -0.76880
C          2.95044       -2.02372       -1.72038
O          4.20057       -1.37985       -1.51278
C          2.48546       -1.36534        0.68967
O          3.22854       -0.22371        1.06603
C          1.16604       -1.44571        1.51407
O          0.96162       -0.35933        2.36955
N         -0.00853        3.68373       -0.30239
C         -1.31999        3.18828       -0.46358
O         -2.24452        3.91139       -0.76835
H          3.03604        2.91720        0.11597
H          2.29094        4.45707        0.01335
H          1.65291        1.10472        0.80916
H         -0.67406       -2.31543        0.65739
H          1.91450       -0.27039       -1.07673
H          2.99036       -3.10189       -1.47171
H          2.59620       -1.92366       -2.76184
H          4.86397       -1.76682       -2.09630
H          3.07987       -2.27972        0.85879
H          4.00996       -0.21774        0.48938
H          1.14945       -2.39708        2.07397
H          1.78707       -0.19515        2.84877
