33
elec13_conf-100.log	Energy: -2267107.0836687
N         -0.23721        4.38974       -0.35508
C         -0.94843        3.22974       -0.18305
N         -0.25616        2.06404       -0.49505
C         -0.94532        0.89830       -0.30501
C         -2.24226        0.85959        0.17254
N         -2.66628       -0.45484        0.23919
C         -1.66713       -1.16273       -0.17780
Br        -1.63158       -3.04027       -0.33853
N         -0.55432       -0.39702       -0.54963
C          0.79694       -0.89789       -0.77355
O          1.63627        0.16003       -1.19949
C          2.68598        0.37552       -0.24549
C          3.94123        0.91555       -0.90949
O          4.90719        1.21112        0.06587
C          2.87479       -1.00298        0.39902
O          3.59871       -0.98695        1.59513
C          1.42297       -1.47329        0.53046
O          0.92697       -0.85018        1.69104
N         -2.15396        3.26348        0.28122
C         -2.93352        2.11417        0.52418
O         -4.05736        2.18251        0.97310
H          0.51266        4.42340       -1.03491
H         -0.79802        5.22954       -0.26787
H          0.65595        2.03968       -0.93501
H          0.74760       -1.66602       -1.56121
H          2.35311        1.08939        0.53199
H          4.29327        0.17810       -1.66123
H          3.71550        1.84689       -1.45520
H          4.92270        0.48501        0.71010
H          3.41082       -1.65484       -0.31139
H          2.97880       -0.70328        2.28848
H          1.31846       -2.56787        0.57532
H          0.06422       -1.21663        1.92879
