33
elec13_conf-176.log	Energy: -2267108.9504968
N          2.96917       -3.26484       -0.20363
C          2.77201       -1.90105       -0.22333
N          1.45450       -1.51117       -0.04862
C          1.23933       -0.16772       -0.03993
C          2.24042        0.75905       -0.24577
N          1.70653        2.03743       -0.18527
C          0.44731        1.88251        0.03649
Br        -0.80724        3.27335        0.23148
N          0.06086        0.52961        0.16126
C         -1.27639        0.01781        0.24543
O         -1.63039       -0.64371       -0.95995
C         -2.47963       -1.75293       -0.65518
C         -3.93667       -1.29052       -0.62835
O         -4.26650       -0.64139       -1.82314
C         -1.94901       -2.30078        0.67177
O         -0.80747       -3.12340        0.48190
C         -1.52372       -1.01364        1.40744
O         -0.42865       -1.25081        2.23637
N          3.76316       -1.09579       -0.42919
C          3.62093        0.30534       -0.49695
O          4.56015        1.03827       -0.72515
H          2.37670       -3.81030        0.41395
H          3.95197       -3.51526       -0.17811
H          0.69970       -2.17967        0.13323
H         -1.91731        0.89913        0.39428
H         -2.35456       -2.47660       -1.47679
H         -4.59936       -2.16467       -0.51768
H         -4.10951       -0.64398        0.25974
H         -3.53631       -0.03450       -2.02091
H         -2.72044       -2.84946        1.23882
H         -1.05034       -3.85630       -0.09974
H         -2.39498       -0.65402        1.98530
H         -0.11625       -0.40840        2.59456
