33
elec13_conf-111.log	Energy: -2267107.0015465
N         -2.20875        3.60817       -0.09899
C         -0.97937        3.01340        0.09307
N         -0.96363        1.65112       -0.18886
C          0.26262        1.04467       -0.09049
C          1.39844        1.72865        0.29061
N          2.47012        0.85520        0.34648
C          1.99345       -0.29844        0.02402
Br         3.00445       -1.88275       -0.09123
N          0.61587       -0.28069       -0.27147
C         -0.19653       -1.45448       -0.52215
O         -0.92969       -1.87940        0.60306
C         -2.23046       -1.29107        0.59503
C         -3.12407       -2.16986        1.45087
O         -2.68197       -2.22763        2.77711
C         -2.61555       -1.19067       -0.89066
O         -3.23267        0.03688       -1.25102
C         -1.25221       -1.29476       -1.64996
O         -0.97410       -0.19346       -2.45986
N          0.03878        3.71112        0.46703
C          1.34060        3.17383        0.57278
O          2.29175        3.85869        0.88164
H         -3.02908        3.05709        0.13020
H         -2.23440        4.56497        0.23789
H         -1.71095        1.25096       -0.75332
H          0.51647       -2.25215       -0.75500
H         -2.18868       -0.27653        1.02919
H         -4.14574       -1.75245        1.45782
H         -3.17788       -3.17345        0.97690
H         -1.74964       -2.48896        2.75412
H         -3.26358       -2.03566       -1.17873
H         -4.16488        0.01700       -0.99949
H         -1.24602       -2.23167       -2.23500
H         -1.79612        0.07445       -2.89692
