33
elec13_conf-15.log	Energy: -2267108.2950569
N          1.19657       -4.15941       -0.20859
C          1.64299       -2.86605       -0.18454
N          0.63933       -1.90717       -0.12914
C          1.06974       -0.61441       -0.11508
C          2.40042       -0.25529       -0.17986
N          2.50660        1.12650       -0.15997
C          1.29783        1.57212       -0.10236
Br         0.79358        3.38350       -0.00817
N          0.32743        0.55004       -0.05586
C         -1.10922        0.68378       -0.11502
O         -1.62181       -0.13059       -1.14534
C         -2.82944       -0.76328       -0.72394
C         -4.03826        0.08994       -1.10000
O         -5.19015       -0.60772       -0.69173
C         -2.67490       -0.97222        0.77802
O         -1.92901       -2.15508        1.01296
C         -1.84328        0.25956        1.20567
O         -0.99774       -0.10945        2.26479
N          2.91007       -2.60752       -0.24447
C          3.43826       -1.30242       -0.25360
O          4.63101       -1.08863       -0.30887
H          0.26058       -4.38558        0.10231
H          1.91481       -4.86368       -0.09551
H         -0.34496       -2.13953        0.03576
H         -1.29997        1.74706       -0.32344
H         -2.90163       -1.73385       -1.23631
H         -3.95932        1.08500       -0.61332
H         -4.00196        0.26024       -2.19220
H         -5.97335       -0.12249       -0.97787
H         -3.65320       -1.02357        1.28025
H         -1.45651       -1.99587        1.85118
H         -2.51223        1.08145        1.51316
H         -0.17086        0.39251        2.21807
