33
elec13_conf-123.log	Energy: -2267110.3069526
N          2.42919        3.81531        0.10066
C          2.49382        2.44100        0.17344
N          1.27440        1.80160       -0.01543
C          1.33635        0.43690       -0.03769
C          2.50183       -0.27522        0.14879
N          2.22603       -1.63258        0.10388
C          0.95435       -1.72337       -0.08604
Br        -0.00958       -3.33240       -0.25671
N          0.31202       -0.47446       -0.20468
C         -1.10390       -0.23468       -0.20622
O         -1.48263        0.44810        0.98350
C         -2.60891        1.29534        0.73720
C         -3.69440        0.96498        1.75158
O         -4.03774       -0.39936        1.69099
C         -3.02780        1.01670       -0.71508
O         -3.53692        2.19543       -1.30659
C         -1.69985        0.57943       -1.35625
O         -0.95061        1.73984       -1.64851
N          3.62278        1.84519        0.37189
C          3.77469        0.44151        0.34659
O          4.85581       -0.08872        0.48812
H          1.59794        4.26187        0.47349
H          3.30187        4.25973        0.36633
H          0.49060        2.24473       -0.49603
H         -1.57076       -1.23316       -0.23651
H         -2.30618        2.35435        0.82488
H         -3.35676        1.26396        2.76178
H         -4.59628        1.55106        1.51263
H         -3.24638       -0.89386        1.94999
H         -3.76059        0.19386       -0.72885
H         -4.17578        1.95935       -1.99150
H         -1.82255       -0.04734       -2.25757
H         -1.61134        2.41642       -1.88616
