33
elec13_conf-72.log	Energy: -2267110.3069150
N          2.42927       -3.81528       -0.10068
C          2.49387       -2.44097       -0.17344
N          1.27444       -1.80158        0.01542
C          1.33636       -0.43689        0.03769
C          2.50183        0.27526       -0.14878
N          2.22601        1.63261       -0.10387
C          0.95433        1.72338        0.08604
Br        -0.00963        3.33239        0.25672
N          0.31202        0.47445        0.20468
C         -1.10390        0.23465        0.20623
O         -1.48262       -0.44812       -0.98350
C         -2.60891       -1.29536       -0.73722
C         -3.69440       -0.96497       -1.75158
O         -4.03773        0.39937       -1.69096
C         -3.02779       -1.01674        0.71507
O         -3.53690       -2.19549        1.30657
C         -1.69984       -0.57948        1.35625
O         -0.95060       -1.73989        1.64848
N          3.62282       -1.84513       -0.37189
C          3.77470       -0.44145       -0.34659
O          4.85582        0.08880       -0.48812
H          1.59803       -4.26185       -0.47351
H          3.30196       -4.25968       -0.36634
H          0.49065       -2.24473        0.49602
H         -1.57077        1.23312        0.23653
H         -2.30618       -2.35437       -0.82491
H         -3.35677       -1.26394       -2.76179
H         -4.59629       -1.55106       -1.51264
H         -3.24637        0.89387       -1.94996
H         -3.76058       -0.19390        0.72886
H         -4.17576       -1.95942        1.99149
H         -1.82253        0.04727        2.25757
H         -1.61132       -2.41648        1.88611
