33
elec13_conf-143.log	Energy: -2267105.8609288
N          3.88718        2.91055       -0.08491
C          3.43018        1.61866       -0.00189
N          2.04985        1.48272       -0.09782
C          1.57411        0.20086       -0.04895
C          2.40583       -0.89518        0.06976
N          1.65271       -2.05569        0.05562
C          0.43023       -1.67436       -0.07694
Br        -1.05633       -2.83002       -0.16952
N          0.27730       -0.27556       -0.16144
C         -0.99810        0.37069       -0.28234
O         -1.65112        0.42447        0.98735
C         -2.84208        1.22775        0.80672
C         -4.06579        0.32343        0.75957
O         -3.97051       -0.62732       -0.27718
C         -2.60810        2.04651       -0.50177
O         -2.96499        3.39232       -0.42074
C         -1.10202        1.82012       -0.74304
O         -0.37761        2.71105        0.10971
N          4.26290        0.63760        0.11471
C          3.86739       -0.71376        0.15396
O          4.66912       -1.61746        0.25280
H          3.28706        3.67188        0.20864
H          4.87133        3.00889        0.13703
H          1.40298        2.27055       -0.14398
H         -1.59261       -0.24214       -0.97893
H         -2.92130        1.91753        1.66366
H         -4.20249       -0.15709        1.74587
H         -4.95532        0.94505        0.56475
H         -3.33574       -1.30567       -0.00231
H         -3.18685        1.59322       -1.32096
H         -2.22661        3.85424        0.00669
H         -0.77470        2.00623       -1.77411
H         -0.49275        2.37805        1.01762
