33
elec13_conf-127.log	Energy: -2267106.8850996
N         -3.95345       -1.59222       -0.22738
C         -2.60245       -1.88186       -0.11238
N         -1.77438       -0.85533       -0.52716
C         -0.43493       -1.04553       -0.31472
C          0.07883       -2.21818        0.20628
N          1.45890       -2.12338        0.27429
C          1.74536       -0.94302       -0.16704
Br         3.46821       -0.21790       -0.37271
N          0.62680       -0.20250       -0.55853
C          0.56645        1.21996       -0.88384
O         -0.77252        1.55364       -1.17451
C         -1.34424        2.16718       -0.01659
C         -2.72038        2.68099       -0.37304
O         -3.59539        1.59938       -0.65839
C         -0.23289        3.11511        0.40754
O         -0.43507        3.57557        1.72455
C          0.98749        2.15145        0.30255
O          1.09836        1.42190        1.48650
N         -2.20091       -2.99563        0.40007
C         -0.83320       -3.30614        0.60220
O         -0.48680       -4.37257        1.06349
H         -4.23129       -1.04542       -1.03816
H         -4.53044       -2.41287       -0.06970
H         -2.13808       -0.00953       -0.95822
H          1.17779        1.40384       -1.77918
H         -1.45470        1.42365        0.79742
H         -3.09425        3.31452        0.45084
H         -2.66306        3.29370       -1.28576
H         -3.84364        1.16108        0.16942
H         -0.14764        3.94532       -0.31484
H          0.03784        4.40824        1.85098
H          1.92739        2.67830        0.05914
H          0.74528        1.98611        2.19500
