33
elec13_conf-11.log	Energy: -2267106.7919458
N          4.16254        1.07296       -0.19128
C          2.86447        1.53454       -0.10255
N          1.91377        0.61841       -0.51930
C          0.60959        0.98144       -0.32301
C          0.24910        2.21739        0.18460
N         -1.12998        2.30002        0.25526
C         -1.56277        1.16196       -0.17629
Br        -3.37697        0.65863       -0.33861
N         -0.55260        0.27703       -0.55549
C         -0.67521       -1.13182       -0.94415
O          0.61376       -1.63855       -1.16406
C          1.02665       -2.32931        0.02341
C          2.33982       -3.01730       -0.26115
O          3.36513       -2.05806       -0.49687
C         -0.22587       -3.14046        0.36210
O         -0.24065       -3.71947        1.62503
C         -1.30840       -2.03943        0.17342
O         -1.41732       -1.40836        1.42406
N          2.60538        2.70164        0.38634
C          1.29157        3.18737        0.57170
O          1.07538        4.29521        1.01398
H          4.37754        0.42265       -0.94120
H          4.85039        1.80532       -0.04927
H          2.17143       -0.29091       -0.89657
H         -1.24375       -1.18999       -1.88427
H          1.18421       -1.60534        0.84838
H          2.58395       -3.69158        0.57800
H          2.25106       -3.62090       -1.17724
H          3.64914       -1.68505        0.35046
H         -0.35583       -3.92997       -0.39718
H         -0.58594       -3.03796        2.22725
H         -2.27511       -2.44616       -0.15955
H         -2.23111       -0.88480        1.45819
