33
elec13_conf-157.log	Energy: -2267108.2290617
N         -2.15631        3.99314       -0.07857
C         -2.34087        2.63098       -0.11114
N         -1.19089        1.87870        0.07757
C         -1.36579        0.52649        0.05306
C         -2.58333       -0.07478       -0.18446
N         -2.42876       -1.45217       -0.16408
C         -1.17696       -1.66010        0.05777
Br        -0.36707       -3.35278        0.21729
N         -0.42900       -0.47487        0.22711
C          1.00136       -0.36667        0.22348
O          1.43362        0.25851       -0.97675
C          2.73381        0.80335       -0.78171
C          3.74549        0.12603       -1.70507
O          5.06668        0.48659       -1.36982
C          3.07921        0.61992        0.71046
O          3.70658        1.78400        1.21681
C          1.68919        0.41267        1.34720
O          1.11822        1.68539        1.56292
N         -3.51312        2.13921       -0.34953
C         -3.77722        0.75621       -0.42380
O         -4.88733        0.32515       -0.65482
H         -1.39688        4.37140        0.47501
H         -3.02517        4.51445       -0.04648
H         -0.30758        2.24803        0.42744
H          1.37240       -1.40509        0.27912
H          2.69715        1.88870       -0.98983
H          3.66714       -0.96537       -1.57323
H          3.49343        0.34406       -2.75970
H          5.16638        1.44002       -1.49509
H          3.71753       -0.26633        0.85087
H          4.37026        1.53161        1.87124
H          1.71061       -0.17509        2.28215
H          1.87728        2.27127        1.74447
