33
elec13_conf-32.log	Energy: -2267108.5870558
N          1.24343       -4.14925       -0.14520
C          1.67623       -2.84688       -0.20732
N          0.65802       -1.90263       -0.17733
C          1.07486       -0.60463       -0.14506
C          2.40347       -0.23021       -0.17419
N          2.49432        1.15195       -0.14486
C          1.27856        1.58274       -0.11401
Br         0.75330        3.38881       -0.01580
N          0.32083        0.55090       -0.10421
C         -1.11623        0.67017       -0.13119
O         -1.64426       -0.14511       -1.15363
C         -2.83959       -0.78324       -0.70850
C         -4.05972        0.06710       -1.05353
O         -5.19998       -0.63713       -0.62428
C         -2.65148       -0.99919        0.78871
O         -1.90319       -2.18583        0.99241
C         -1.81661        0.23275        1.20456
O         -0.94715       -0.14840        2.23754
N          2.94039       -2.57577       -0.25067
C          3.45485       -1.26392       -0.21649
O          4.64664       -1.03885       -0.22656
H          0.33423       -4.37518       -0.53245
H          1.97723       -4.82714       -0.31770
H         -0.30891       -2.14991        0.06251
H         -1.32312        1.73209       -0.33159
H         -2.92058       -1.75240       -1.22218
H         -3.97408        1.05983       -0.56330
H         -4.04782        0.24352       -2.14535
H         -5.99086       -0.15043       -0.88570
H         -3.61854       -1.05563        1.31185
H         -1.45238       -2.07655        1.84856
H         -2.48352        1.04931        1.53201
H         -0.19836        0.46214        2.29030
