33
elec13_conf-162.log	Energy: -2267105.6367636
N         -4.06401       -2.76410       -0.27279
C         -3.51539       -1.50347       -0.26477
N         -2.11780       -1.49888       -0.35822
C         -1.55595       -0.24716       -0.23372
C         -2.28031        0.91086       -0.05840
N         -1.41139        1.98087       -0.00140
C         -0.22204        1.48564       -0.15056
Br         1.32111        2.55905       -0.09761
N         -0.22292        0.09051       -0.30851
C          0.81221       -0.88863       -0.69378
O          2.02020       -0.29830       -1.03380
C          2.99586       -0.42553        0.02623
C          4.19569       -1.17289       -0.54220
O          3.84599       -2.44251       -1.04670
C          2.27541       -1.13985        1.17676
O          1.60558       -0.26426        2.06376
C          1.15250       -1.88598        0.45104
O          0.08068       -2.24269        1.27254
N         -4.26237       -0.45913       -0.14288
C         -3.75043        0.84904        0.02348
O         -4.48008        1.79982        0.20191
H         -3.61407       -3.46965       -0.84588
H         -5.07760       -2.75715       -0.31274
H         -1.60505       -2.26641        0.08020
H          0.40896       -1.41379       -1.57580
H          3.30126        0.58740        0.33624
H          4.66722       -0.54085       -1.31770
H          4.94023       -1.32789        0.25509
H          3.31765       -2.29049       -1.84244
H          2.94843       -1.82793        1.71705
H          2.23174        0.31420        2.51570
H          1.56757       -2.79213       -0.01019
H         -0.00003       -1.53543        1.93729
