33
elec13_conf-164.log	Energy: -2267104.1900091
N          3.30720       -2.98285        0.18420
C          2.97531       -1.66615       -0.01659
N          1.61120       -1.40142        0.16305
C          1.28137       -0.06760        0.09397
C          2.18781        0.93131       -0.17220
N          1.53488        2.15386       -0.18857
C          0.29448        1.88533        0.04509
Br        -1.08181        3.16221        0.16955
N          0.03887        0.51562        0.24757
C         -1.26092       -0.10360        0.18993
O         -1.49883       -0.54961       -1.14074
C         -2.31107       -1.72128       -1.11671
C         -3.79570       -1.39208       -1.11555
O         -4.14231       -0.76604        0.10554
C         -1.78911       -2.49150        0.10480
O         -0.63342       -3.23349       -0.21011
C         -1.50762       -1.34029        1.11221
O         -0.41844       -1.57315        1.97634
N          3.87438       -0.79077       -0.31220
C          3.60791        0.59637       -0.38762
O          4.48397        1.40086       -0.61790
H          2.61303       -3.69102       -0.02738
H          4.26379       -3.20782       -0.06495
H          1.08834       -1.94492        0.85755
H         -1.98182        0.68194        0.44708
H         -2.09174       -2.29244       -2.03204
H         -3.99070       -0.73162       -1.98006
H         -4.36315       -2.33237       -1.26788
H         -5.02456       -0.38351        0.02879
H         -2.52536       -3.20587        0.50136
H         -0.01889       -2.64764       -0.68229
H         -2.42517       -1.14223        1.68246
H         -0.66888       -2.25274        2.61562
