33
elec13_conf-37.log	Energy: -2267109.0209535
N          1.41354       -4.11488       -0.27020
C          1.80260       -2.78782       -0.26400
N          0.74505       -1.88821       -0.25357
C          1.10417       -0.56956       -0.17785
C          2.41850       -0.14688       -0.13511
N          2.45532        1.23560       -0.08459
C          1.22191        1.61671       -0.10499
Br         0.63372        3.40298       -0.03164
N          0.30831        0.55385       -0.17356
C         -1.12650        0.62859       -0.14508
O         -1.66791       -0.19041       -1.16748
C         -2.84775       -0.83173       -0.70280
C         -4.08618        0.01732       -0.98181
O         -5.19899       -0.71197       -0.51536
C         -2.61443       -1.07760        0.78668
O         -1.79917       -2.23143        1.00159
C         -1.77591        0.15032        1.21124
O         -0.87629       -0.10509        2.23662
N          3.05258       -2.46855       -0.23571
C          3.51045       -1.13443       -0.13227
O          4.69146       -0.86964       -0.06076
H          0.61573       -4.34698       -0.85435
H          2.20593       -4.73606       -0.40202
H         -0.20142       -2.19321       -0.02353
H         -1.37382        1.68472       -0.32531
H         -2.94946       -1.78686       -1.24110
H         -3.99088        0.99955       -0.47512
H         -4.12582        0.21386       -2.06924
H         -6.00582       -0.22060       -0.71150
H         -3.55677       -1.16321        1.34406
H         -2.35588       -3.00351        1.16201
H         -2.45244        0.94931        1.55128
H         -0.64748       -1.04705        2.19462
