33
elec13_conf-61.log	Energy: -2267108.1459104
N          3.35186        2.63611       -0.14410
C          1.99306        2.52399        0.01634
N          1.49212        1.27362       -0.32073
C          0.13387        1.12789       -0.22196
C         -0.70043        2.15522        0.17519
N         -2.01086        1.70786        0.17536
C         -1.95284        0.47232       -0.19798
Br        -3.41052       -0.69801       -0.41624
N         -0.65688        0.03023       -0.47614
C         -0.23363       -1.33555       -0.74796
O          1.12726       -1.32929       -1.13060
C          1.91902       -1.79572       -0.03288
C          3.31800       -2.04410       -0.54592
O          3.86742       -0.83301       -1.05309
C          1.07705       -2.93873        0.51265
O          1.49001       -3.28966        1.81367
C         -0.32721       -2.27050        0.49881
O         -0.49244       -1.51246        1.65891
N          1.27660        3.52200        0.41591
C         -0.13218        3.47480        0.51114
O         -0.78156        4.44123        0.85115
H          3.91658        1.79504       -0.08584
H          3.74892        3.48254        0.24578
H          2.07186        0.58261       -0.78302
H         -0.83415       -1.72098       -1.58456
H          1.97358       -1.02001        0.75326
H          3.95033       -2.37973        0.28970
H          3.31198       -2.83699       -1.31523
H          3.60470       -0.75305       -1.97973
H          1.11089       -3.79817       -0.18022
H          1.20747       -4.19260        2.00841
H         -1.14629       -3.00072        0.36945
H          0.02880       -1.94866        2.35368
