33
elec13_conf-158.log	Energy: -2267108.0811452
N          1.71521       -4.01455       -0.08413
C          2.00393       -2.66699       -0.13265
N          0.89697       -1.84175       -0.03339
C          1.16067       -0.50687       -0.04782
C          2.42987        0.01014       -0.20981
N          2.37086        1.39522       -0.18556
C          1.12685        1.69066       -0.02716
Br         0.42883        3.43507        0.10214
N          0.28994        0.55957        0.08632
C         -1.14628        0.54216        0.10777
O         -1.65269        0.00453       -1.10108
C         -2.82226       -0.75300       -0.82932
C         -4.08211        0.12185       -0.87080
O         -5.24751       -0.63661       -0.64053
C         -2.58246       -1.39748        0.54126
O         -1.78422       -2.56923        0.44235
C         -1.78068       -0.30314        1.27421
O         -0.86682       -0.86385        2.16612
N          3.22130       -2.26102       -0.29607
C          3.57650       -0.89941       -0.38705
O          4.72092       -0.54368       -0.57667
H          0.94679       -4.29964        0.51462
H          2.54955       -4.58563        0.00033
H         -0.04900       -2.20526        0.12093
H         -1.44781        1.59534        0.20809
H         -2.90036       -1.52698       -1.61269
H         -4.03738        0.88469       -0.07592
H         -4.09939        0.66479       -1.83310
H         -5.47485       -1.11008       -1.45114
H         -3.53197       -1.62360        1.05025
H         -2.27296       -3.22926       -0.06663
H         -2.50275        0.34960        1.79832
H         -0.31051       -0.16059        2.52844
