33
elec13_conf-124.log	Energy: -2267110.3069589
N         -2.42921       -3.81530        0.10067
C         -2.49383       -2.44099        0.17344
N         -1.27441       -1.80159       -0.01543
C         -1.33635       -0.43689       -0.03769
C         -2.50183        0.27523        0.14878
N         -2.22602        1.63259        0.10387
C         -0.95434        1.72338       -0.08604
Br         0.00959        3.33240       -0.25671
N         -0.31202        0.47446       -0.20468
C          1.10390        0.23467       -0.20622
O          1.48262       -0.44811        0.98350
C          2.60891       -1.29535        0.73721
C          3.69440       -0.96497        1.75158
O          4.03773        0.39936        1.69098
C          3.02779       -1.01671       -0.71507
O          3.53691       -2.19545       -1.30658
C          1.69985       -0.57944       -1.35625
O          0.95061       -1.73985       -1.64850
N         -3.62279       -1.84517        0.37189
C         -3.77469       -0.44149        0.34659
O         -4.85581        0.08875        0.48812
H         -1.59797       -4.26186        0.47350
H         -3.30190       -4.25971        0.36634
H         -0.49061       -2.24473       -0.49603
H          1.57076        1.23314       -0.23652
H          2.30618       -2.35436        0.82489
H          3.35676       -1.26395        2.76178
H          4.59628       -1.55106        1.51264
H          3.24637        0.89387        1.94998
H          3.76059       -0.19387       -0.72885
H          4.17577       -1.95937       -1.99150
H          1.82255        0.04732       -2.25757
H          1.61134       -2.41644       -1.88614
