33
elec13_conf-153.log	Energy: -2267108.1594332
N          2.50265       -3.75794       -0.42718
C          2.53429       -2.39275       -0.25710
N          1.29058       -1.77627       -0.27828
C          1.31085       -0.41336       -0.17758
C          2.47312        0.32323       -0.05301
N          2.15698        1.66956        0.01135
C          0.86838        1.72993       -0.07980
Br        -0.17612        3.29365       -0.02951
N          0.26057        0.47355       -0.20535
C         -1.15169        0.16709       -0.18143
O         -1.36236       -1.04968       -0.87059
C         -2.58165       -1.64638       -0.39565
C         -3.64721       -1.54575       -1.47038
O         -3.93008       -0.17568       -1.66673
C         -2.96765       -0.90562        0.92009
O         -3.34993       -1.75157        1.96223
C         -1.70475       -0.08561        1.22906
O         -0.85433       -0.93952        1.96851
N          3.65989       -1.77228       -0.12188
C          3.77564       -0.36744       -0.03426
O          4.85248        0.18172        0.05772
H          1.71225       -4.26696       -0.04678
H          3.40563       -4.19367       -0.27263
H          0.43036       -2.23504       -0.55858
H         -1.69384        0.99646       -0.66382
H         -2.38289       -2.70634       -0.16903
H         -3.26803       -2.02251       -2.39371
H         -4.53714       -2.11297       -1.13035
H         -4.53751       -0.07732       -2.40918
H         -3.80096       -0.22082        0.70843
H         -2.52745       -2.01599        2.40626
H         -1.91549        0.85381        1.76527
H         -0.11791       -0.43487        2.33756
