32
elec66_conf-46.log	Energy: -2219873.9280221
N         -3.93722       -1.69373        0.25983
C         -2.90903       -2.45631       -0.11618
C         -3.75784       -0.36759        0.38772
C         -2.47689        0.16747        0.11084
C         -1.48894       -0.74498       -0.27587
N         -1.66044       -2.06956       -0.40132
H         -3.10990       -3.53009       -0.19975
N         -4.79102        0.40683        0.77063
N         -0.34316        0.00363       -0.48360
C         -0.72079        1.31548       -0.21163
N         -1.96916        1.44572        0.14807
Br         0.43039        2.79836       -0.29478
H         -4.66301        1.40336        0.87879
H         -5.68452       -0.02477        0.96521
C          0.90607       -0.60867       -0.99889
O          1.96590        0.29734       -0.98383
C          3.07992       -0.20899       -0.22372
C          2.84876       -1.72407       -0.21343
C          1.32966       -1.83833       -0.16046
O          0.91053       -3.06815       -0.66397
O          3.52253       -2.35116        0.84304
C          3.15394        0.45051        1.15201
O          1.93775        0.38682        1.86475
H         -0.07105       -3.04839       -0.61465
H          3.23351       -3.27402        0.85804
H          1.38589        1.11819        1.55764
H          1.01332       -1.66628        0.88377
H          3.16495       -2.13624       -1.19309
H          0.69163       -0.92707       -2.03494
H          3.99399        0.04923       -0.78184
H          3.48634        1.49669        1.02165
H          3.91920       -0.07953        1.73900
