32
elec66_conf-16.log	Energy: -2219875.4410917
N         -1.72508        3.56058        0.26410
C         -0.42274        3.27183        0.34428
C         -2.60603        2.55794        0.11100
C         -2.11166        1.23446        0.04045
C         -0.72335        1.07962        0.14206
N          0.16078        2.07035        0.29272
H          0.25049        4.12798        0.46679
N         -3.92278        2.83732        0.02768
N         -0.50185       -0.28995        0.05668
C         -1.76686       -0.84929       -0.10960
N         -2.73881        0.01320       -0.11485
Br        -2.00857       -2.70052       -0.29738
H         -4.59203        2.08886       -0.08452
H         -4.22611        3.79995        0.08530
C          0.77437       -0.97249        0.02626
O          1.42325       -0.73906       -1.21395
C          2.79374       -0.38646       -1.01568
C          3.10132       -0.81078        0.43407
C          1.75612       -0.56062        1.12387
O          1.53385       -1.33909        2.27190
O          4.18841       -0.19399        1.06524
C          2.98470        1.10942       -1.28955
O          4.33651        1.50870       -1.06999
H          2.20264       -1.08349        2.92183
H          4.44768        0.58280        0.53608
H          4.89935        1.09126       -1.73694
H          1.66011        0.51736        1.33551
H          3.26094       -1.90589        0.45262
H          0.55008       -2.04365        0.14408
H          3.39945       -0.96628       -1.73550
H          2.35497        1.70159       -0.61089
H          2.65295        1.33299       -2.31905
