32
elec66_conf-0.log	Energy: -2219883.0583225
N         -1.65767        3.54024        0.23054
C         -0.35546        3.26826        0.16002
C         -2.54012        2.52578        0.19453
C         -2.04386        1.20568        0.08131
C         -0.65267        1.05913        0.01582
N          0.22916        2.06794        0.05221
H          0.32379        4.12739        0.19269
N         -3.85791        2.79180        0.26579
N         -0.43319       -0.30442       -0.08797
C         -1.70182       -0.87727       -0.09087
N         -2.67468       -0.02010        0.01482
Br        -1.94752       -2.72985       -0.23124
H         -4.52810        2.03597        0.23557
H         -4.16342        3.75278        0.34149
C          0.85511       -0.96004       -0.23483
O          1.50074       -0.43876       -1.36895
C          2.91342       -0.27462       -1.14952
C          3.18444       -0.84597        0.26838
C          1.80656       -0.76171        0.94202
O          1.56503       -1.73636        1.92193
O          4.20326       -0.21380        0.99007
C          3.30861        1.19344       -1.27471
O          2.97985        1.94780       -0.12842
H          2.23546       -1.62464        2.60989
H          3.97011        0.73622        0.98100
H          1.99136        2.01500       -0.06795
H          1.68372        0.25918        1.34417
H          3.44840       -1.91424        0.19812
H          0.64194       -2.03710       -0.33761
H          3.44107       -0.85231       -1.92780
H          2.84091        1.60304       -2.18946
H          4.40175        1.24809       -1.40427
