32
elec66_conf-10.log	Energy: -2219880.4925555
N         -2.10780        3.31778        0.01566
C         -0.79983        3.25933       -0.23590
C         -2.78540        2.16760        0.15847
C         -2.08091        0.94750        0.03330
C         -0.70405        1.02090       -0.23815
N         -0.03264        2.17389       -0.38080
H         -0.28264        4.22053       -0.33484
N         -4.10782        2.20198        0.41409
N         -0.28942       -0.30142       -0.32591
C         -1.43388       -1.05609       -0.09864
N         -2.50944       -0.35920        0.11931
Br        -1.37692       -2.93285       -0.11048
H         -4.62152        1.33947        0.52917
H         -4.56926        3.09722        0.50219
C          1.03963       -0.86554       -0.61772
O          1.84259        0.09974       -1.21656
C          3.04549        0.30899       -0.45326
C          2.69711       -0.17986        0.96207
C          1.78995       -1.37296        0.63391
O          2.51312       -2.50902        0.21495
O          1.95433        0.72897        1.72711
C          3.47294        1.76064       -0.60402
O          2.59125        2.65988        0.02491
H          3.03331       -2.83102        0.96205
H          2.16198        1.62996        1.39877
H          1.66448        2.48468       -0.30483
H          1.10112       -1.58313        1.46888
H          3.61326       -0.51479        1.49176
H          0.87808       -1.71774       -1.29606
H          3.83760       -0.34681       -0.85879
H          3.57922        1.97769       -1.68456
H          4.46951        1.88280       -0.14695
