32
elec66_conf-49.log	Energy: -2219879.4692131
N          1.89589        3.45403       -0.13104
C          0.59849        3.24952       -0.35911
C          2.69801        2.39760        0.09046
C          2.12421        1.10411        0.07651
C          0.74743        1.03339       -0.16763
N         -0.05263        2.08032       -0.39424
H         -0.00975        4.14229       -0.54066
N          4.01030        2.59926        0.31529
N          0.43425       -0.31495       -0.13441
C          1.63988       -0.95601        0.14072
N          2.65775       -0.15658        0.26103
Br         1.74941       -2.82463        0.28353
H          4.61836        1.81419        0.50248
H          4.36652        3.54555        0.33261
C         -0.89777       -0.89475       -0.20795
O         -1.66795       -0.38687        0.84316
C         -3.00537       -0.14788        0.38548
C         -2.85142        0.26357       -1.09197
C         -1.67405       -0.62814       -1.53574
O         -2.20215       -1.83367       -2.04703
O         -2.63000        1.62692       -1.28057
C         -3.67430        0.88546        1.27134
O         -3.83182        0.46656        2.60657
H         -1.47548       -2.37987       -2.37400
H         -1.74533        1.86612       -0.91154
H         -4.36932       -0.33600        2.61148
H         -1.05224       -0.09741       -2.27695
H         -3.74086       -0.02024       -1.67406
H         -0.75811       -1.98460       -0.11292
H         -3.57255       -1.10137        0.42943
H         -4.63649        1.16622        0.79663
H         -3.04863        1.78808        1.28794
