32
elec66_conf-52.log	Energy: -2219879.4691692
N          1.89589        3.45403       -0.13104
C          0.59849        3.24952       -0.35911
C          2.69801        2.39760        0.09045
C          2.12421        1.10411        0.07651
C          0.74743        1.03339       -0.16763
N         -0.05263        2.08032       -0.39424
H         -0.00975        4.14229       -0.54066
N          4.01030        2.59926        0.31529
N          0.43425       -0.31495       -0.13441
C          1.63988       -0.95601        0.14072
N          2.65775       -0.15658        0.26102
Br         1.74941       -2.82463        0.28353
H          4.61837        1.81419        0.50247
H          4.36652        3.54555        0.33260
C         -0.89777       -0.89475       -0.20795
O         -1.66795       -0.38686        0.84317
C         -3.00537       -0.14788        0.38548
C         -2.85142        0.26357       -1.09198
C         -1.67406       -0.62815       -1.53573
O         -2.20216       -1.83370       -2.04700
O         -2.62999        1.62691       -1.28058
C         -3.67430        0.88547        1.27133
O         -3.83181        0.46659        2.60656
H         -1.47549       -2.37990       -2.37397
H         -1.74532        1.86612       -0.91155
H         -4.36929       -0.33599        2.61149
H         -1.05224       -0.09744       -2.27695
H         -3.74086       -0.02025       -1.67406
H         -0.75811       -1.98460       -0.11290
H         -3.57255       -1.10136        0.42944
H         -4.63650        1.16621        0.79663
H         -3.04863        1.78809        1.28792
