32
elec66_conf-44.log	Energy: -2219880.0042339
N         -1.11884        3.69325        0.22069
C          0.11273        3.20744        0.36081
C         -2.14463        2.84036        0.04444
C         -1.86700        1.45337        0.00944
C         -0.52787        1.07642        0.16517
N          0.49327        1.92260        0.34565
H          0.91254        3.94157        0.50709
N         -3.39194        3.32628       -0.09299
N         -0.52083       -0.30609        0.09981
C         -1.85370       -0.66070       -0.10886
N         -2.67459        0.34650       -0.15662
Br        -2.38348       -2.45052       -0.28491
H         -4.16847        2.69464       -0.23257
H         -3.53651        4.32691       -0.06768
C          0.64590       -1.17927        0.07661
O          1.41395       -0.89546       -1.06049
C          2.80268       -0.74986       -0.73521
C          2.86082       -0.40666        0.77134
C          1.58464       -1.08801        1.31498
O          1.82752       -2.37350        1.84308
O          2.94735        0.96823        1.03264
C          3.41010        0.34162       -1.61899
O          4.67905        0.72115       -1.15405
H          2.36826       -2.87199        1.21473
H          2.09403        1.39800        0.76063
H          4.51158        1.15682       -0.30081
H          1.14062       -0.49453        2.12538
H          3.73569       -0.87449        1.24579
H          0.23890       -2.20168        0.04480
H          3.32196       -1.71204       -0.91502
H          2.69132        1.18262       -1.64312
H          3.51750       -0.02702       -2.65094
