32
elec66_conf-4.log	Energy: -2219880.7340776
N          1.99334        3.40084       -0.10340
C          0.69073        3.24289       -0.33642
C          2.75994        2.31496        0.10348
C          2.14425        1.04143        0.06797
C          0.76763        1.01948       -0.18401
N          0.00191        2.09579       -0.39269
H          0.11174        4.15799       -0.50193
N          4.07698        2.46984        0.33629
N          0.41085       -0.31803       -0.17430
C          1.59248       -1.00388        0.10268
N          2.63440       -0.23819        0.24060
Br         1.63514       -2.87267        0.24156
H          4.65988        1.66136        0.50311
H          4.46615        3.40288        0.36160
C         -0.93492       -0.85245       -0.26837
O         -1.68305       -0.38080        0.82131
C         -3.02851       -0.09664        0.39353
C         -2.87606        0.40660       -1.05207
C         -1.71283       -0.48297       -1.55941
O         -2.15509       -1.71274       -2.09627
O         -2.62834        1.77330       -1.16790
C         -3.62148        0.87181        1.39631
O         -3.63732        0.32309        2.69401
H         -2.66707       -1.52902       -2.89450
H         -1.71640        1.96518       -0.83775
H         -2.73238        0.03445        2.87861
H         -1.08601        0.08111       -2.27230
H         -3.78766        0.18269       -1.63124
H         -0.83585       -1.94885       -0.25371
H         -3.60621       -1.04014        0.39878
H         -4.66218        1.09560        1.11315
H         -3.05321        1.81822        1.34476
