32
elec66_conf-42.log	Energy: -2219881.8302049
N         -1.57988       -3.54799       -0.24090
C         -0.30348       -3.23141       -0.45053
C         -2.47098       -2.56701       -0.00732
C         -2.00983       -1.22943        0.00726
C         -0.64379       -1.03697       -0.22563
N          0.24418       -2.00897       -0.46123
H          0.38212       -4.06538       -0.63568
N         -3.76232       -2.88390        0.20220
N         -0.44638        0.33096       -0.17305
C         -1.70259        0.86420        0.11284
N         -2.64834       -0.02234        0.21434
Br        -1.96389        2.70937        0.30947
H         -4.43516       -2.15697        0.40276
H         -4.03589       -3.85749        0.20557
C          0.82704        1.02313       -0.22416
O          1.56422        0.70610        0.92468
C          2.95138        0.64531        0.57864
C          2.95242        0.01354       -0.82631
C          1.71644        0.69345       -1.45612
O          2.02348        1.93861       -2.04811
O          2.86751       -1.39059       -0.82341
C          3.74151       -0.08036        1.65933
O          3.36589       -1.41262        1.85483
H          2.58204        1.77938       -2.81995
H          1.91955       -1.66214       -0.67766
H          3.31905       -1.80335        0.96468
H          1.21223        0.01215       -2.16327
H          3.86433        0.29379       -1.37950
H          0.59389        2.09834       -0.27930
H          3.35145        1.67557        0.48665
H          3.59814        0.45642        2.61204
H          4.81608        0.02833        1.39082
