32
elec66_conf-28.log	Energy: -2219875.3581789
N          3.95777        1.65138        0.39321
C          2.94794        2.42620       -0.00415
C          3.76105        0.32602        0.50479
C          2.48125       -0.19288        0.19373
C          1.50766        0.73210       -0.20004
N          1.70146        2.05484       -0.31885
H          3.16361        3.49738       -0.08423
N          4.77629       -0.46384        0.90197
N          0.35977       -0.00952       -0.43779
C          0.73479       -1.33262       -0.20245
N          1.97235       -1.47134        0.18573
Br        -0.39121       -2.81413       -0.44370
H          4.63746       -1.46137        0.98613
H          5.67413       -0.04666        1.10799
C         -0.89282        0.57231       -0.97263
O         -1.98279       -0.26613       -0.72402
C         -3.01352        0.41487        0.02694
C         -2.74211        1.89187       -0.25149
C         -1.21771        1.93479       -0.31531
O         -0.76792        3.05690       -1.00032
O         -3.29323        2.72308        0.73421
C         -2.94549       -0.00027        1.49181
O         -3.10739       -1.38896        1.62687
H          0.20812        3.04331       -0.87641
H         -2.99301        3.62360        0.54733
H         -2.44197       -1.81083        1.06247
H         -0.84228        1.91385        0.72569
H         -3.12152        2.14855       -1.26049
H         -0.75640        0.70514       -2.06073
H         -3.97158        0.06831       -0.38784
H         -3.75958        0.49641        2.04025
H         -1.99363        0.35290        1.93832
