32
elec66_conf-27.log	Energy: -2219875.2722854
N         -4.17349       -1.40332        0.22901
C         -3.21055       -2.25912       -0.11929
C         -3.88114       -0.09694        0.35507
C         -2.55218        0.32081        0.10100
C         -1.64923       -0.68068       -0.26934
N         -1.92710       -1.98632       -0.38348
H         -3.50355       -3.31212       -0.19280
N         -4.84959        0.76586        0.71698
N         -0.43459       -0.04657       -0.45981
C         -0.68300        1.29265       -0.17340
N         -1.92031        1.54277        0.15978
Br         0.61632        2.65065       -0.17692
H         -4.63893        1.74841        0.82339
H         -5.78045        0.41379        0.89655
C          0.74036       -0.80004       -0.95245
O          1.81699        0.05108       -1.16352
C          3.04092       -0.48392       -0.63060
C          2.70499       -1.90388       -0.09241
C          1.17478       -1.90163        0.03982
O          0.63738       -3.15135       -0.24911
O          3.39441       -2.24979        1.07581
C          3.58212        0.43888        0.44808
O          2.74554        0.45575        1.59310
H         -0.33696       -3.03980       -0.28665
H          3.11494       -1.62224        1.76237
H          1.99531        1.03749        1.40171
H          0.92342       -1.55010        1.06161
H          2.95878       -2.66299       -0.84761
H          0.41815       -1.27938       -1.89566
H          3.77063       -0.52950       -1.45679
H          3.72086        1.45171        0.03145
H          4.56519        0.06272        0.76814
