32
elec66_conf-31.log	Energy: -2219875.2722415
N         -4.17349       -1.40332        0.22901
C         -3.21055       -2.25913       -0.11929
C         -3.88114       -0.09694        0.35506
C         -2.55219        0.32080        0.10100
C         -1.64924       -0.68069       -0.26934
N         -1.92710       -1.98633       -0.38348
H         -3.50356       -3.31212       -0.19279
N         -4.84959        0.76586        0.71697
N         -0.43459       -0.04658       -0.45980
C         -0.68301        1.29265       -0.17340
N         -1.92032        1.54277        0.15978
Br         0.61632        2.65065       -0.17691
H         -4.63894        1.74841        0.82338
H         -5.78045        0.41379        0.89654
C          0.74035       -0.80005       -0.95244
O          1.81699        0.05108       -1.16352
C          3.04091       -0.48392       -0.63062
C          2.70499       -1.90387       -0.09242
C          1.17479       -1.90163        0.03984
O          0.63738       -3.15135       -0.24907
O          3.39443       -2.24979        1.07579
C          3.58212        0.43888        0.44805
O          2.74556        0.45575        1.59309
H         -0.33696       -3.03979       -0.28662
H          3.11497       -1.62224        1.76235
H          1.99530        1.03746        1.40169
H          0.92345       -1.55008        1.06162
H          2.95877       -2.66299       -0.84762
H          0.41814       -1.27939       -1.89565
H          3.77062       -0.52949       -1.45681
H          3.72086        1.45172        0.03142
H          4.56520        0.06273        0.76812
