32
elec66_conf-19.log	Energy: -2219876.2571929
N         -3.42365       -2.55492        0.40657
C         -2.23413       -2.97259       -0.02616
C         -3.63048       -1.23689        0.57489
C         -2.56709       -0.34592        0.29575
C         -1.36077       -0.91938       -0.12614
N         -1.15793       -2.23189       -0.31682
H         -2.12335       -4.05353       -0.16678
N         -4.83358       -0.80321        0.99611
N         -0.50020        0.15065       -0.33146
C         -1.26324        1.28615       -0.06067
N         -2.47965        1.02951        0.32607
Br        -0.59031        3.01276       -0.31642
H         -4.99986        0.18649        1.11563
H         -5.56737       -1.47680        1.17013
C          0.89104        0.11614       -0.76536
O          1.67886        0.89324        0.10516
C          3.01658        0.36234        0.18601
C          3.00252       -0.88283       -0.72114
C          1.53377       -1.27539       -0.69849
O          1.21411       -2.18076       -1.70051
O          3.85765       -1.89945       -0.24801
C          3.35995        0.06289        1.64669
O          4.71310       -0.27289        1.79729
H          0.33924       -2.53648       -1.42576
H          3.65075       -2.70400       -0.74514
H          4.84722       -1.07765        1.27261
H          1.31458       -1.68533        0.30488
H          3.26737       -0.60504       -1.75955
H          0.93321        0.51156       -1.79892
H          3.72454        1.12217       -0.18286
H          2.67683       -0.72163        2.03056
H          3.16394        0.97450        2.23292
