32
elec66_conf-1.log	Energy: -2219882.8145978
N         -1.66873        3.53719        0.22547
C         -0.36589        3.27013        0.14691
C         -2.54803        2.52003        0.19377
C         -2.04775        1.20171        0.07545
C         -0.65644        1.06091        0.00004
N          0.22226        2.07215        0.03279
H          0.31040        4.13158        0.17835
N         -3.86606        2.78177        0.27361
N         -0.43214       -0.30179       -0.10733
C         -1.69809       -0.87924       -0.09790
N         -2.67386       -0.02695        0.01456
Br        -1.93813       -2.73465       -0.23191
H         -4.53401        2.02360        0.25506
H         -4.17343        3.74119        0.36106
C          0.85903       -0.95113       -0.24605
O          1.51391       -0.43157       -1.37185
C          2.92439       -0.27371       -1.13272
C          3.18511       -0.83912        0.29235
C          1.79907       -0.74838        0.95446
O          1.55161       -1.62181        2.01969
O          4.21815       -0.21536        0.98996
C          3.32414        1.19344       -1.25513
O          2.97749        1.95119       -0.11784
H          1.93650       -2.48430        1.81270
H          3.97878        0.73176        1.01352
H          1.98892        2.02157       -0.07347
H          1.66744        0.27013        1.34486
H          3.45253       -1.91000        0.21405
H          0.64263       -2.02806       -0.35986
H          3.46137       -0.85347       -1.90317
H          2.87146        1.59875       -2.17953
H          4.41911        1.24593       -1.36728
