32
elec66_conf-47.log	Energy: -2219880.0330554
N          2.25857        3.22444       -0.00754
C          0.95176        3.22801        0.25842
C          2.88035        2.04461       -0.16037
C          2.12017        0.85867       -0.02914
C          0.75147        0.99854        0.25881
N          0.13545        2.18025        0.41062
H          0.48250        4.21281        0.36348
N          4.19983        2.01866       -0.43097
N          0.27426       -0.30178        0.34955
C          1.37544       -1.10855        0.10312
N          2.48252       -0.46814       -0.12469
Br         1.22556       -2.98551        0.10941
H          4.67135        1.13448       -0.56088
H          4.69906        2.89241       -0.52925
C         -1.07997       -0.80808        0.63369
O         -1.85307        0.18706        1.21502
C         -3.03737        0.43771        0.42945
C         -2.68601       -0.07634       -0.97520
C         -1.83714       -1.30020       -0.63206
O         -2.68790       -2.37287       -0.30758
O         -1.88039        0.79726       -1.72267
C         -3.40632        1.90655        0.56636
O         -2.47294        2.76730       -0.04220
H         -2.14363       -3.15486       -0.14718
H         -2.06387        1.70805       -1.41027
H         -1.56373        2.55703        0.30945
H         -1.14746       -1.53109       -1.45991
H         -3.59673       -0.38381       -1.52262
H         -0.95019       -1.65048        1.33343
H         -3.86103       -0.18152        0.82861
H         -3.53002        2.13148        1.64348
H         -4.38513        2.06889        0.08446
