32
elec66_conf-6.log	Energy: -2219880.4826660
N         -1.08814        3.70068        0.22586
C          0.14070        3.20328        0.35518
C         -2.12245        2.85829        0.05203
C         -1.85687        1.46900        0.00713
C         -0.51907        1.08083        0.14860
N          0.51090        1.91604        0.32902
H          0.94693        3.93024        0.50196
N         -3.36664        3.35609       -0.07262
N         -0.52422       -0.30161        0.07426
C         -1.86080       -0.64404       -0.12012
N         -2.67522        0.36870       -0.15444
Br        -2.40530       -2.43284       -0.28168
H         -4.14913        2.73305       -0.21712
H         -3.50092        4.35814       -0.04618
C          0.64260       -1.17676        0.02771
O          1.41766       -0.84683       -1.08567
C          2.80930       -0.75743       -0.74118
C          2.85279       -0.45499        0.77186
C          1.56170       -1.11883        1.28405
O          1.88647       -2.42334        1.71390
O          2.95224        0.91287        1.07332
C          3.45627        0.33839       -1.59033
O          4.72066        0.68966       -1.09017
H          1.09732       -2.83559        2.08879
H          2.12043        1.36251        0.77638
H          4.54220        1.10180       -0.22767
H          1.11402       -0.51363        2.09136
H          3.70717       -0.95738        1.24449
H          0.24099       -2.19945       -0.05707
H          3.29163       -1.73388       -0.92683
H          2.75329        1.19297       -1.61884
H          3.58349       -0.01410       -2.62574
