32
elec66_conf-33.log	Energy: -2219879.1565063
N         -0.89291        3.73047        0.21626
C          0.33285        3.21537        0.13482
C         -1.95263        2.90308        0.17683
C         -1.71956        1.51287        0.04775
C         -0.38201        1.10335       -0.03325
N          0.67450        1.92593        0.00809
H          1.16660        3.92486        0.17482
N         -3.19439        3.41525        0.26145
N         -0.42766       -0.27506       -0.15531
C         -1.78281       -0.59386       -0.13647
N         -2.57404        0.43178       -0.01526
Br        -2.37193       -2.37028       -0.25359
H         -3.99747        2.80246        0.23150
H         -3.30887        4.41588        0.35313
C          0.69534       -1.20320       -0.29984
O          1.65972       -0.63020       -1.13477
C          2.96857       -0.73439       -0.53658
C          2.70201       -0.75046        0.97887
C          1.39933       -1.58252        1.02352
O          1.64162       -2.97178        0.93402
O          2.56631        0.48909        1.60379
C          3.84854        0.35743       -1.12652
O          3.37375        1.65894       -0.92827
H          2.13317       -3.24554        1.71912
H          2.13553        1.12314        0.99789
H          2.40021        1.65044       -0.97397
H          0.79422       -1.31030        1.90540
H          3.50492       -1.29896        1.50121
H          0.28032       -2.12436       -0.73621
H          3.40083       -1.71591       -0.80694
H          3.97308        0.12774       -2.20546
H          4.84759        0.27734       -0.66423
