32
elec66_conf-30.log	Energy: -2219875.2722227
N         -4.17348       -1.40332        0.22902
C         -3.21054       -2.25913       -0.11929
C         -3.88113       -0.09695        0.35507
C         -2.55218        0.32080        0.10100
C         -1.64923       -0.68068       -0.26934
N         -1.92709       -1.98633       -0.38348
H         -3.50354       -3.31212       -0.19279
N         -4.84958        0.76585        0.71699
N         -0.43459       -0.04657       -0.45981
C         -0.68300        1.29265       -0.17340
N         -1.92031        1.54277        0.15978
Br         0.61632        2.65066       -0.17693
H         -4.63893        1.74841        0.82339
H         -5.78045        0.41378        0.89655
C          0.74036       -0.80004       -0.95245
O          1.81700        0.05108       -1.16352
C          3.04092       -0.48391       -0.63060
C          2.70499       -1.90387       -0.09241
C          1.17479       -1.90163        0.03982
O          0.63739       -3.15135       -0.24912
O          3.39441       -2.24979        1.07581
C          3.58210        0.43888        0.44810
O          2.74551        0.45574        1.59311
H         -0.33695       -3.03980       -0.28666
H          3.11492       -1.62225        1.76237
H          1.99527        1.03748        1.40172
H          0.92343       -1.55010        1.06161
H          2.95878       -2.66298       -0.84762
H          0.41815       -1.27937       -1.89566
H          3.77064       -0.52948       -1.45677
H          3.72084        1.45172        0.03148
H          4.56517        0.06273        0.76818
