32
elec66_conf-40.log	Energy: -2219873.9211007
N         -3.89875       -1.64022        0.23954
C         -2.90169       -2.40124       -0.21668
C         -3.68606       -0.32604        0.42845
C         -2.40758        0.19964        0.12916
C         -1.45666       -0.70930       -0.34889
N         -1.65819       -2.02380       -0.53409
H         -3.12853       -3.46543       -0.34607
N         -4.68737        0.44639        0.89594
N         -0.30902        0.02832       -0.56820
C         -0.64062        1.32937       -0.21039
N         -1.87196        1.46500        0.20738
Br         0.51247        2.80135       -0.34139
H         -4.54052        1.43756        1.02581
H         -5.58771        0.02637        1.08301
C          0.93526       -0.60599       -1.06041
O          2.02756        0.25854       -0.99975
C          3.01386       -0.22613       -0.07902
C          2.80167       -1.74488       -0.10565
C          1.28602       -1.86760       -0.22828
O          0.92010       -3.07520       -0.82288
O          3.35805       -2.37204        1.01814
C          2.89079        0.43619        1.28465
O          1.59516        0.22183        1.80593
H         -0.06184       -3.06350       -0.81974
H          3.08555       -3.29946        0.99184
H          1.44705        0.82974        2.53922
H          0.85936       -1.74741        0.78113
H          3.23612       -2.13945       -1.04608
H          0.75114       -0.89597       -2.10912
H          3.99756        0.04641       -0.49172
H          3.09036        1.51483        1.14910
H          3.67498        0.01009        1.93822
