32
elec66_conf-23.log	Energy: -2219880.0391988
N          2.00576        3.40382       -0.08610
C          0.70611        3.24332       -0.33372
C          2.77161        2.31918        0.12974
C          2.15893        1.04468        0.08724
C          0.78515        1.01996       -0.17949
N          0.02020        2.09509       -0.39769
H          0.12730        4.15736       -0.50568
N          4.08608        2.47625        0.37679
N          0.43081       -0.31777       -0.17423
C          1.61001       -1.00109        0.11650
N          2.64951       -0.23401        0.26529
Br         1.65503       -2.87003        0.25494
H          4.66583        1.66922        0.56057
H          4.47130        3.41037        0.41621
C         -0.91504       -0.85242       -0.27437
O         -1.66444       -0.38399        0.81395
C         -3.00121       -0.10864        0.38594
C         -2.85098        0.40076       -1.06179
C         -1.68495       -0.48115       -1.56947
O         -2.12472       -1.70950       -2.11380
O         -2.60815        1.76911       -1.16218
C         -3.65884        0.86704        1.34248
O         -3.79773        0.36805        2.65150
H         -2.62205       -1.52226       -2.92040
H         -1.69403        1.96010       -0.83497
H         -4.31671       -0.44577        2.61361
H         -1.05605        0.08625       -2.27752
H         -3.76128        0.17886       -1.64410
H         -0.81379       -1.94913       -0.26317
H         -3.57540       -1.05947        0.36685
H         -4.62818        1.17446        0.89891
H         -3.03380        1.76819        1.40410
