32
elec66_conf-36.log	Energy: -2219875.7187396
N         -1.77052        3.54639        0.24771
C         -0.46889        3.26866        0.37055
C         -2.63960        2.53725        0.07271
C         -2.13305        1.21705        0.02245
C         -0.74727        1.07608        0.16488
N          0.12453        2.07136        0.34186
H          0.19345        4.13021        0.51157
N         -3.95514        2.80743       -0.04906
N         -0.51019       -0.29277        0.09012
C         -1.76501       -0.86396       -0.11114
N         -2.74389       -0.01181       -0.14587
Br        -1.98289       -2.72094       -0.29088
H         -4.61488        2.05636       -0.19474
H         -4.26368        3.76979       -0.02029
C          0.77642       -0.95317        0.05931
O          1.41534       -0.73571       -1.17673
C          2.80302       -0.39526       -1.00452
C          3.09916       -0.74940        0.46169
C          1.75989       -0.48317        1.14331
O          1.60539       -1.07746        2.40549
O          4.16715        0.00104        0.99208
C          3.05673        1.07314       -1.35763
O          4.43523        1.34792       -1.40826
H          1.68245       -2.03802        2.31119
H          4.12564       -0.05937        1.95697
H          4.77204        1.18379       -0.51443
H          1.64634        0.59952        1.28957
H          3.31443       -1.83760        0.53632
H          0.56094       -2.02838        0.19486
H          3.39567       -1.01625       -1.69446
H          2.50554        1.72930       -0.65883
H          2.63643        1.24957       -2.36038
