32
elec66_conf-35.log	Energy: -2219875.1582921
N         -1.71798        3.56226        0.26623
C         -0.41575        3.27116        0.33972
C         -2.60186        2.56210        0.11470
C         -2.11037        1.23771        0.03843
C         -0.72188        1.08074        0.13297
N          0.16501        2.06865        0.28156
H          0.25963        4.12550        0.46232
N         -3.91815        2.84497        0.03744
N         -0.50227       -0.28893        0.04278
C         -1.76902       -0.84592       -0.11649
N         -2.73991        0.01715       -0.11511
Br        -2.01493       -2.69807       -0.30247
H         -4.59073        2.09804       -0.06448
H         -4.21913        3.80751        0.10807
C          0.77402       -0.96952        0.01613
O          1.43213       -0.73360       -1.21586
C          2.80051       -0.38517       -0.99953
C          3.10142       -0.80642        0.45464
C          1.74902       -0.55960        1.13897
O          1.53079       -1.24191        2.34198
O          4.20362       -0.20682        1.06166
C          2.99391        1.11085       -1.27188
O          4.34648        1.50974       -1.06269
H          1.91836       -2.12542        2.27306
H          4.45779        0.57270        0.53453
H          4.90445        1.09542       -1.73561
H          1.64219        0.51219        1.35385
H          3.25983       -1.90709        0.45933
H          0.54137       -2.04178        0.11850
H          3.41567       -0.96418       -1.71205
H          2.36853        1.70308       -0.58926
H          2.65347        1.33307       -2.29888
