32
elec66_conf-50.log	Energy: -2219876.3957595
N         -4.48973       -1.28947       -0.26892
C         -3.54257       -2.22232       -0.42242
C         -4.12650       -0.01087       -0.07557
C         -2.74436        0.29339       -0.04327
C         -1.87341       -0.78697       -0.21894
N         -2.21637       -2.05985       -0.40917
H         -3.90293       -3.24587       -0.57671
N         -5.07732        0.93288        0.08003
N         -0.59506       -0.24872       -0.14546
C         -0.78918        1.11056        0.07160
N         -2.03769        1.46792        0.13201
Br         0.62261        2.33887        0.25897
H         -4.81593        1.89628        0.23478
H         -6.05000        0.65806        0.05654
C          0.59199       -1.05679       -0.25549
O          1.42584       -0.58560       -1.28700
C          2.72291       -1.18281       -1.11820
C          2.79383       -1.68477        0.36510
C          1.49378       -1.13148        0.98256
O          0.94614       -1.83838        2.05515
O          3.96760       -1.35155        1.04449
C          3.76773       -0.12956       -1.43488
O          3.73197        0.92393       -0.48711
H          0.80663       -2.75799        1.78946
H          4.07441       -0.38732        0.95527
H          2.84352        1.31323       -0.52682
H          1.68988       -0.11248        1.34817
H          2.73140       -2.78701        0.37869
H          0.20150       -2.06891       -0.48099
H          2.82568       -2.02633       -1.82558
H          3.61162        0.24325       -2.46364
H          4.76832       -0.58208       -1.37983
