32
elec66_conf-17.log	Energy: -2219875.5342581
N         -3.86091       -1.75809        0.25556
C         -2.83679       -2.47389       -0.21124
C         -3.69990       -0.43812        0.45765
C         -2.44386        0.14089        0.16004
C         -1.45657       -0.72539       -0.32168
N         -1.60844       -2.04432       -0.52378
H         -3.02226       -3.54411       -0.35572
N         -4.72947        0.29011        0.93183
N         -0.33741        0.06027       -0.53075
C         -0.72765        1.34905       -0.17360
N         -1.96322        1.42709        0.24395
Br         0.36182        2.86658       -0.30473
H         -4.61278        1.28048        1.09543
H         -5.60619       -0.16979        1.13671
C          0.91636       -0.49885       -1.08441
O          1.97573        0.39496       -0.97210
C          3.04572       -0.13058       -0.17230
C          2.83480       -1.65105       -0.22312
C          1.31798       -1.79280       -0.33578
O          0.96482       -2.97977       -0.97129
O          3.37635       -2.27630        0.92385
C          3.05385        0.44570        1.24276
O          2.02673       -0.05567        2.06770
H         -0.01833       -2.99418       -0.93106
H          3.19356       -3.22330        0.84890
H          2.27305       -0.97347        2.25935
H          0.90024       -1.72376        0.68295
H          3.27940       -2.06432       -1.14713
H          0.72588       -0.72803       -2.14803
H          3.98062        0.17062       -0.67139
H          2.91225        1.53421        1.16310
H          4.05426        0.26455        1.67955
