32
elec66_conf-11.log	Energy: -2219876.5860957
N         -3.38599       -1.94781       -0.30714
C         -2.22956       -2.51679       -0.63630
C         -3.40472       -0.63290       -0.02015
C         -2.19361        0.09243       -0.09571
C         -1.04696       -0.62124       -0.46654
N         -1.02622       -1.93415       -0.73905
H         -2.25727       -3.59233       -0.84334
N         -4.56657       -0.04835        0.32553
N         -0.02375        0.31200       -0.49146
C         -0.62805        1.51048       -0.11100
N         -1.90296        1.42108        0.12457
Br         0.34695        3.10623       -0.00668
H         -4.58321        0.93187        0.57157
H         -5.40233       -0.61366        0.39200
C          1.41168        0.18568       -0.77899
O          2.20232        0.37700        0.35728
C          2.55164       -0.88206        0.97181
C          2.23511       -1.98743       -0.08256
C          1.89449       -1.16064       -1.34922
O          3.04291       -0.91977       -2.13284
O          1.23476       -2.89230        0.32256
C          1.84880       -1.03818        2.31811
O          0.45065       -1.12859        2.22148
H          3.67839       -0.42834       -1.59232
H          0.41438       -2.71862       -0.20586
H          0.29859       -1.96297        1.74815
H          1.16539       -1.66549       -1.99409
H          3.14628       -2.56586       -0.30490
H          1.64563        0.98928       -1.48979
H          3.63774       -0.83542        1.16338
H          2.08261       -0.14802        2.92329
H          2.29086       -1.91467        2.83394
