32
elec66_conf-37.log	Energy: -2219875.0119631
N         -1.67334        3.57967        0.26929
C         -0.37546        3.27037        0.34653
C         -2.56935        2.59061        0.11491
C         -2.09470        1.26026        0.04006
C         -0.70848        1.08407        0.13792
N          0.19105        2.06134        0.28969
H          0.30967        4.11687        0.47207
N         -3.88209        2.88933        0.03461
N         -0.50839       -0.28804        0.04812
C         -1.78138       -0.82786       -0.11648
N         -2.74065        0.04932       -0.11684
Br        -2.05186       -2.67439       -0.30910
H         -4.56199        2.15073       -0.07906
H         -4.17168        3.85596        0.09517
C          0.76066       -0.98578        0.01110
O          1.42250       -0.72008       -1.21098
C          2.79974       -0.40865       -0.99464
C          3.08691       -0.83475        0.45958
C          1.73068       -0.61100        1.13248
O          1.48188       -1.42008        2.25428
O          4.12452       -0.15855        1.11680
C          3.04379        1.07214       -1.27158
O          4.45379        1.27887       -1.16919
H          2.11290       -1.16241        2.93956
H          4.57817        0.40202        0.46165
H          4.63707        2.22519       -1.22082
H          1.63767        0.46135        1.37094
H          3.27449       -1.92725        0.47478
H          0.52241       -2.05721        0.09732
H          3.40388       -0.99351       -1.70759
H          2.47499        1.69174       -0.55834
H          2.67536        1.30111       -2.28780
