32
elec66_conf-38.log	Energy: -2219879.7771069
N          1.92772        3.47690       -0.09698
C          0.62608        3.26246       -0.28924
C          2.74601        2.42564        0.08865
C          2.18508        1.12676        0.07460
C          0.80365        1.04568       -0.13506
N         -0.01367        2.08688       -0.32177
H          0.00340        4.15130       -0.43829
N          4.06207        2.63774        0.28056
N          0.50417       -0.30539       -0.11368
C          1.72140       -0.93979        0.12804
N          2.73395       -0.13075        0.23370
Br         1.84771       -2.80508        0.26670
H          4.68375        1.85563        0.43200
H          4.41110        3.58672        0.29239
C         -0.81872       -0.89592       -0.17446
O         -1.55583       -0.46730        0.94162
C         -2.92320       -0.30736        0.55410
C         -2.84928        0.24964       -0.88233
C         -1.65165       -0.55654       -1.44068
O         -2.03458       -1.80316       -1.98677
O         -2.66760        1.62777       -0.94973
C         -3.63142        0.57227        1.57010
O         -5.01989        0.61692        1.32634
H         -2.58974       -1.63547       -2.75929
H         -1.74890        1.85377       -0.66526
H         -5.38507       -0.25855        1.50854
H         -1.07964        0.05423       -2.16086
H         -3.76864        0.00270       -1.43755
H         -0.67235       -1.98750       -0.17131
H         -3.41092       -1.30454        0.52152
H         -3.25182        1.59832        1.46890
H         -3.38523        0.21277        2.58791
