32
elec66_conf-20.log	Energy: -2219879.0933977
N         -1.99361       -3.40873       -0.09005
C         -0.69420       -3.24375       -0.33474
C         -2.76371       -2.32699        0.12552
C         -2.15511       -1.05030        0.08602
C         -0.78091       -1.02060       -0.17790
N         -0.01214       -2.09284       -0.39536
H         -0.11183       -4.15536       -0.50731
N         -4.07775       -2.48900        0.37011
N         -0.43055        0.31840       -0.16966
C         -1.61368        0.99719        0.11851
N         -2.65040        0.22641        0.26441
Br        -1.66777        2.86624        0.25956
H         -4.66265       -1.68391        0.54603
H         -4.46130       -3.42420        0.39993
C          0.91103        0.86174       -0.27940
O          1.67071        0.41082        0.81106
C          3.00076        0.11162        0.38272
C          2.85067       -0.39447       -1.06794
C          1.69095        0.49412       -1.58074
O          2.12413        1.65794       -2.24922
O          2.60804       -1.76278       -1.15902
C          3.64257       -0.87564        1.34070
O          3.79075       -0.37896        2.64910
H          2.80199        2.09153       -1.71267
H          1.69107       -1.95302       -0.83881
H          4.37661        0.38836        2.62096
H          1.06603       -0.06164       -2.29217
H          3.75423       -0.17645       -1.66010
H          0.78837        1.95723       -0.26888
H          3.59994        1.05195        0.38223
H          4.60415       -1.20407        0.89680
H          2.99732       -1.76218        1.40149
