32
elec66_conf-26.log	Energy: -2219881.2998653
N         -1.53140        3.56540        0.25094
C         -0.25826        3.23012        0.45362
C         -2.43719        2.59873        0.01626
C         -1.99431        1.25477       -0.00775
C         -0.62944        1.04311        0.21617
N          0.27269        2.00055        0.45425
H          0.43901        4.05354        0.64206
N         -3.72490        2.93496       -0.18499
N         -0.45007       -0.32764        0.15380
C         -1.71567       -0.84168       -0.12431
N         -2.65050        0.05679       -0.21479
Br        -2.00580       -2.68543       -0.31390
H         -4.40916        2.21948       -0.38796
H         -3.98406        3.91255       -0.18231
C          0.81736       -1.03494        0.19256
O          1.56288       -0.69982       -0.94235
C          2.95093       -0.66464       -0.58536
C          2.95290       -0.07145        0.83581
C          1.71086       -0.74659        1.44494
O          2.11982       -1.95281        2.05141
O          2.88599        1.33423        0.86626
C          3.75587        0.07822       -1.64312
O          3.40128        1.42101       -1.80408
H          1.35797       -2.36097        2.48281
H          1.94868        1.62235        0.69838
H          3.36449        1.78889       -0.90367
H          1.21255       -0.07124        2.16119
H          3.84570       -0.38382        1.39727
H          0.56714       -2.10926        0.20556
H          3.33651       -1.70218       -0.52028
H          3.60825       -0.43038       -2.61055
H          4.82721       -0.05402       -1.37338
