32
elec66_conf-39.log	Energy: -2219880.9770556
N         -1.16868        3.68400        0.21361
C          0.06825        3.21280        0.35959
C         -2.18364        2.81893        0.03450
C         -1.88985        1.43530        0.00362
C         -0.54693        1.07503        0.16576
N          0.46440        1.93286        0.34881
H          0.85846        3.95712        0.50687
N         -3.43625        3.29010       -0.10900
N         -0.52389       -0.30716        0.10462
C         -1.84991       -0.67917       -0.11039
N         -2.68322        0.31802       -0.16387
Br        -2.35217       -2.47636       -0.28499
H         -4.20357        2.64929       -0.25731
H         -3.59176        4.28923       -0.09274
C          0.65886       -1.15604        0.07981
O          1.41693       -0.84312       -1.05466
C          2.80972       -0.74533       -0.73183
C          2.86661       -0.37347        0.76553
C          1.58260       -1.03118        1.31687
O          1.79937       -2.35622        1.75708
O          2.95118        1.00667        1.00579
C          3.45222        0.31075       -1.63291
O          4.71599        0.69049       -1.15037
H          2.40776       -2.33208        2.50700
H          2.09304        1.42701        0.73546
H          4.53435        1.15600       -0.31641
H          1.13461       -0.39947        2.10432
H          3.74691       -0.83615        1.23731
H          0.28884       -2.19215        0.05138
H          3.28929       -1.73072       -0.87614
H          2.74617        1.16042       -1.69929
H          3.58014       -0.08880       -2.65091
