32
elec66_conf-5.log	Energy: -2219880.7340588
N          1.99333        3.40084       -0.10340
C          0.69072        3.24289       -0.33642
C          2.75994        2.31497        0.10348
C          2.14425        1.04143        0.06797
C          0.76763        1.01948       -0.18401
N          0.00190        2.09579       -0.39269
H          0.11173        4.15799       -0.50193
N          4.07698        2.46985        0.33628
N          0.41085       -0.31803       -0.17429
C          1.59248       -1.00388        0.10268
N          2.63440       -0.23819        0.24060
Br         1.63515       -2.87267        0.24156
H          4.65988        1.66137        0.50311
H          4.46614        3.40289        0.36159
C         -0.93492       -0.85245       -0.26837
O         -1.68305       -0.38080        0.82131
C         -3.02851       -0.09664        0.39353
C         -2.87606        0.40659       -1.05207
C         -1.71283       -0.48297       -1.55941
O         -2.15508       -1.71274       -2.09627
O         -2.62835        1.77330       -1.16790
C         -3.62149        0.87180        1.39631
O         -3.63732        0.32309        2.69401
H         -2.66706       -1.52902       -2.89450
H         -1.71642        1.96519       -0.83775
H         -2.73237        0.03445        2.87861
H         -1.08601        0.08111       -2.27230
H         -3.78767        0.18268       -1.63124
H         -0.83585       -1.94885       -0.25371
H         -3.60621       -1.04015        0.39878
H         -4.66218        1.09559        1.11315
H         -3.05321        1.81822        1.34476
