32
elec66_conf-14.log	Energy: -2219880.1220802
N          1.88793        3.44855       -0.14743
C          0.58733        3.24850       -0.36052
C          2.68941        2.38967        0.06475
C          2.11098        1.09793        0.05776
C          0.73135        1.03205       -0.17133
N         -0.06823        2.08135       -0.38789
H         -0.01993        4.14329       -0.53525
N          4.00443        2.58726        0.27502
N          0.41402       -0.31564       -0.13378
C          1.62096       -0.96110        0.12728
N          2.64226       -0.16454        0.23658
Br         1.72518       -2.82977        0.27036
H          4.61437        1.79977        0.44532
H          4.36556        3.53191        0.27865
C         -0.91860       -0.89294       -0.20283
O         -1.68748       -0.38163        0.84953
C         -3.03381       -0.13582        0.39098
C         -2.87680        0.27350       -1.08293
C         -1.70156       -0.62470       -1.52710
O         -2.23214       -1.82926       -2.03559
O         -2.64976        1.63482       -1.28279
C         -3.64240        0.88988        1.32521
O         -3.66476        0.42501        2.65550
H         -1.50962       -2.37049       -2.37944
H         -1.76712        1.87396       -0.91129
H         -2.75837        0.16037        2.86660
H         -1.08051       -0.09547       -2.27011
H         -3.76678       -0.01102       -1.66350
H         -0.78313       -1.98261       -0.10598
H         -3.60251       -1.08208        0.45538
H         -4.68223        1.08560        1.01957
H         -3.08205        1.83634        1.21919
