32
elec66_conf-15.log	Energy: -2219880.9241565
N         -1.63160        3.52946        0.23605
C         -0.35141        3.23233        0.44930
C         -2.50751        2.53527        0.00058
C         -2.02638        1.20455       -0.01164
C         -0.65841        1.03259        0.22554
N          0.21417        2.01787        0.46202
H          0.32139        4.07626        0.63602
N         -3.80233        2.83300       -0.21343
N         -0.44037       -0.33261        0.17528
C         -1.68878       -0.88438       -0.11264
N         -2.64653       -0.01201       -0.21871
Br        -1.92440       -2.73383       -0.30685
H         -4.46565        2.09581       -0.40822
H         -4.09152        3.80212       -0.21109
C          0.83890       -1.01093        0.24823
O          1.57886       -0.72340       -0.90846
C          2.96140       -0.61739       -0.56412
C          2.95365        0.04325        0.82882
C          1.73386       -0.64787        1.47890
O          2.06885       -1.80078        2.21557
O          2.84610        1.44438        0.78316
C          3.73451        0.10254       -1.66338
O          3.31825        1.41563       -1.89138
H          2.64109       -2.36303        1.67509
H          1.89013        1.69974        0.66133
H          3.26533        1.82793       -1.01076
H          1.22288        0.02890        2.17630
H          3.86360       -0.20622        1.39761
H          0.60194       -2.08507        0.32494
H          3.39693       -1.63786       -0.46709
H          3.60826       -0.46278       -2.60191
H          4.81086        0.03190       -1.38950
