32
elec66_conf-8.log	Energy: -2219880.0330805
N          2.25867       -3.22438        0.00755
C          0.95185       -3.22799       -0.25839
C          2.88041       -2.04453        0.16036
C          2.12020       -0.85862        0.02913
C          0.75150       -0.99852       -0.25881
N          0.13551       -2.18025       -0.41059
H          0.48262       -4.21279       -0.36344
N          4.19990       -2.01854        0.43095
N          0.27425        0.30179       -0.34954
C          1.37541        1.10859       -0.10313
N          2.48251        0.46821        0.12467
Br         1.22547        2.98555       -0.10941
H          4.67139       -1.13435        0.56085
H          4.69914       -2.89227        0.52924
C         -1.07999        0.80805       -0.63369
O         -1.85305       -0.18712       -1.21502
C         -3.03736       -0.43780       -0.42945
C         -2.68601        0.07627        0.97519
C         -1.83718        1.30015        0.63206
O         -2.68797        2.37280        0.30756
O         -1.88037       -0.79730        1.72267
C         -3.40627       -1.90664       -0.56637
O         -2.47287       -2.76737        0.04221
H         -2.14373        3.15480        0.14715
H         -2.06382       -1.70809        1.41028
H         -1.56366       -2.55708       -0.30944
H         -1.14752        1.53107        1.45991
H         -3.59674        0.38371        1.52262
H         -0.95023        1.65045       -1.33343
H         -3.86103        0.18141       -0.82861
H         -3.52995       -2.13158       -1.64349
H         -4.38507       -2.06902       -0.08448
