17
elec65_conf-0.log	Energy: -1934787.6368996
O         -3.47057        0.80296       -0.00021
C         -2.13818        0.64547       -0.00013
N         -1.36558        1.66762       -0.00009
C          0.03576        1.53611       -0.00001
N          0.84306        2.52785        0.00003
C          0.50558        0.14889        0.00003
Br         2.36478       -0.22761        0.00014
C         -0.36671       -0.89585       -0.00002
N         -1.73885       -0.67314       -0.00010
C         -2.66462       -1.80495       -0.00014
O         -0.04031       -2.19161        0.00001
H         -3.61430        1.76366       -0.00022
H         -2.50609       -2.42798       -0.89207
H         -3.68595       -1.41588       -0.00021
H         -2.50621       -2.42796        0.89181
H          0.93371       -2.24562        0.00007
H          0.29730        3.39482       -0.00001
