17
elec65_conf-2.log	Energy: -1934787.4694425
O         -3.47230        0.82313       -0.00004
C         -2.13957        0.66377       -0.00003
N         -1.36663        1.67988       -0.00008
C          0.03239        1.55804       -0.00008
N          0.74803        2.61763       -0.00013
C          0.49319        0.15843       -0.00001
Br         2.35945       -0.24139        0.00001
C         -0.38070       -0.88779        0.00005
N         -1.74766       -0.66256        0.00003
C         -2.67989       -1.78902        0.00009
O         -0.06005       -2.18531        0.00011
H         -3.61074        1.78513       -0.00009
H         -2.52683       -2.41316       -0.89211
H         -3.69800       -1.39167        0.00007
H         -2.52683       -2.41307        0.89236
H          0.91111       -2.25457        0.00011
H          1.74059        2.36798       -0.00012
