42
elec74_conf-13.log	Energy: -798566.5961724
I          3.99832       -2.56454       -0.01544
C          2.09562       -1.61804       -0.06166
C          0.93639       -2.42489        0.01310
C         -0.32603       -1.84431       -0.00011
C         -0.43746       -0.44467       -0.09572
C         -1.50555        0.53360       -0.14178
C         -2.94537        0.38851       -0.09624
C         -3.64305       -0.76082        0.02134
C         -5.10757       -0.81457        0.06019
C         -5.76680       -2.05302        0.19042
C         -7.15933       -2.08448        0.22609
C         -7.86188       -0.88229        0.13115
C         -7.12193        0.30067        0.00401
N         -5.79494        0.34004       -0.03094
N         -0.98995        1.75670       -0.24597
N          0.34896        1.63891       -0.28069
C          1.22509        2.78199       -0.36828
C          0.47888        4.08146       -0.64424
C          1.47575        5.24582       -0.64871
C          2.31611        5.23675        0.63287
C          2.94005        3.85979        0.84170
O          1.95283        2.84052        0.84371
C          0.74852        0.32752       -0.18009
C          2.03427       -0.23407       -0.15342
H          1.03697       -3.50812        0.08691
H         -1.20722       -2.48238        0.06369
H         -3.51015        1.32173       -0.16367
H         -3.13227       -1.72238        0.09662
H         -5.18368       -2.97390        0.26240
H         -7.68916       -3.03501        0.32682
H         -8.95305       -0.85422        0.15426
H         -7.64004        1.26442       -0.07319
H          1.94224        2.58774       -1.19572
H         -0.06218        4.00258       -1.59861
H         -0.27558        4.21517        0.14451
H          2.14403        5.15631       -1.52477
H          0.94045        6.20152       -0.76043
H          3.10788        6.00294        0.59504
H          1.67486        5.46891        1.50013
H          3.68623        3.65787        0.04379
H          3.45641        3.78691        1.80963
H          2.92780        0.38723       -0.17949
