42
elec74_conf-8.log	Energy: -798566.5962100
I          3.99832       -2.56454       -0.01544
C          2.09562       -1.61804       -0.06166
C          0.93639       -2.42489        0.01312
C         -0.32603       -1.84430       -0.00009
C         -0.43746       -0.44467       -0.09571
C         -1.50555        0.53360       -0.14176
C         -2.94537        0.38851       -0.09622
C         -3.64305       -0.76082        0.02132
C         -5.10757       -0.81457        0.06018
C         -5.76681       -2.05302        0.19035
C         -7.15933       -2.08448        0.22604
C         -7.86188       -0.88228        0.13116
C         -7.12193        0.30068        0.00406
N         -5.79494        0.34005       -0.03089
N         -0.98995        1.75670       -0.24596
N          0.34896        1.63891       -0.28069
C          1.22509        2.78198       -0.36828
C          0.47889        4.08146       -0.64424
C          1.47576        5.24582       -0.64872
C          2.31612        5.23674        0.63285
C          2.94006        3.85978        0.84169
O          1.95284        2.84051        0.84370
C          0.74852        0.32752       -0.18009
C          2.03427       -0.23407       -0.15342
H          1.03697       -3.50812        0.08694
H         -1.20722       -2.48238        0.06373
H         -3.51015        1.32174       -0.16361
H         -3.13227       -1.72238        0.09656
H         -5.18370       -2.97391        0.26229
H         -7.68917       -3.03501        0.32672
H         -8.95306       -0.85421        0.15428
H         -7.64003        1.26444       -0.07308
H          1.94224        2.58773       -1.19572
H         -0.06217        4.00258       -1.59861
H         -0.27557        4.21517        0.14450
H          2.14404        5.15630       -1.52479
H          0.94047        6.20152       -0.76044
H          3.10791        6.00293        0.59502
H          1.67488        5.46891        1.50011
H          3.68624        3.65785        0.04378
H          3.45642        3.78691        1.80961
H          2.92780        0.38723       -0.17950
