42
elec74_conf-11.log	Energy: -798560.8061425
I          4.80361       -1.51236        0.03739
C          2.71277       -1.13900       -0.05707
C          1.82525       -2.22085        0.16662
C          0.45214       -2.01866        0.12966
C         -0.03449       -0.72733       -0.14029
C         -1.33448       -0.11506       -0.25913
C         -2.62120       -0.76697       -0.10568
C         -3.82158       -0.16284       -0.22561
C         -5.09873       -0.85988       -0.06085
C         -6.31185       -0.15798       -0.20426
C         -7.51707       -0.83879       -0.04398
C         -7.48497       -2.20155        0.25515
C         -6.23191       -2.81652        0.37917
N         -5.07846       -2.17612        0.22830
N         -1.19974        1.17946       -0.53614
N          0.11898        1.45006       -0.60861
C          0.66569        2.78371       -0.90561
C         -0.43077        3.84253       -1.11248
C         -0.62890        4.67896        0.16487
C         -0.41214        3.81030        1.40494
C          1.02631        3.27178        1.41027
O          1.57796        3.15422        0.09403
C          0.88019        0.32995       -0.37059
C          2.27406        0.15121       -0.32362
H          2.22747       -3.21292        0.37400
H         -0.23187       -2.85092        0.30861
H         -2.61136       -1.83507        0.12661
H         -3.86359        0.90451       -0.45865
H         -6.29603        0.90854       -0.43903
H         -8.46888       -0.31254       -0.15129
H         -8.40157       -2.77914        0.39011
H         -6.16869       -3.88622        0.61361
H          1.28089        2.67587       -1.81204
H         -0.12799        4.49057       -1.94749
H         -1.36197        3.33919       -1.39993
H          0.08905        5.51625        0.17875
H         -1.63534        5.12414        0.17040
H         -0.58989        4.38070        2.33009
H         -1.13466        2.97979        1.39405
H          1.70209        3.96569        1.93277
H          1.08399        2.29502        1.92403
H          2.95823        0.98634       -0.46245
