42
elec74_conf-18.log	Energy: -798562.4685782
I          4.30023       -2.28646        0.05738
C          2.34653       -1.45788       -0.05404
C          1.23605       -2.32810        0.04763
C         -0.05731       -1.82476       -0.00494
C         -0.24720       -0.43928       -0.16569
C         -1.37124        0.46778       -0.25196
C         -2.80083        0.23624       -0.19555
C         -3.41704       -0.95427       -0.04090
C         -4.86313       -1.18715        0.01761
C         -5.82176       -0.15752       -0.08204
C         -7.17301       -0.47964       -0.01520
C         -7.54390       -1.81750        0.14923
C         -6.52598       -2.77128        0.23886
N         -5.22967       -2.47425        0.17617
N         -0.93167        1.71459       -0.40822
N          0.41484        1.68104       -0.45228
C          1.21702        2.89996       -0.44155
C          0.53450        4.03522       -1.21888
C          1.00575        5.37898       -0.66036
C          0.60309        5.50857        0.82210
C          0.59714        4.12158        1.49006
O          1.55769        3.26836        0.87443
C          0.88984        0.40098       -0.28113
C          2.20532       -0.08619       -0.21567
H          1.39882       -3.39880        0.17393
H         -0.90148       -2.50819        0.08173
H         -3.38770        1.15389       -0.29273
H         -2.84111       -1.87514        0.05633
H         -5.50870        0.87963       -0.20995
H         -7.93103        0.30401       -0.09040
H         -8.59249       -2.11612        0.20680
H         -6.77592       -3.83119        0.36831
H          2.17280        2.63301       -0.91608
H          0.76592        3.92900       -2.28935
H         -0.55554        3.93803       -1.11643
H          2.10235        5.44615       -0.75369
H          0.58894        6.20800       -1.25195
H          1.29894        6.18585        1.34103
H         -0.40270        5.95194        0.91109
H          0.87282        4.17617        2.55226
H         -0.40364        3.65882        1.42912
H          3.06813        0.57630       -0.27149
