42
elec74_conf-5.log	Energy: -798566.0951312
I          4.59236       -1.92998       -0.01551
C          2.52687       -1.42615       -0.04456
C          1.57658       -2.47199        0.05377
C          0.21762       -2.18509        0.05160
C         -0.19106       -0.84443       -0.05677
C         -1.45281       -0.14453       -0.09552
C         -2.77654       -0.73400       -0.02167
C         -3.93714       -0.04764       -0.06457
C         -5.25548       -0.67980        0.01384
C         -6.42228        0.10840       -0.03569
C         -7.66807       -0.51112        0.04068
C         -7.72193       -1.90019        0.16446
C         -6.50992       -2.60234        0.20550
N         -5.31830       -2.02086        0.13335
N         -1.24266        1.16240       -0.21513
N          0.09112        1.35643       -0.26909
C          0.67909        2.66923       -0.37005
C         -0.34288        3.75721       -0.67598
C          0.35975        5.11935       -0.69910
C          1.16710        5.32753        0.58687
C          2.08754        4.13422        0.82796
O          1.36021        2.91626        0.84552
C          0.78542        0.17518       -0.16355
C          2.16433       -0.08958       -0.14834
H          1.91847       -3.50406        0.13697
H         -0.51473       -2.99096        0.13392
H         -2.83162       -1.82120        0.07732
H         -3.91094        1.04094       -0.16242
H         -6.33910        1.19304       -0.13277
H         -8.58493        0.08256        0.00418
H         -8.67317       -2.43227        0.22810
H         -6.51420       -3.69501        0.30221
H          1.43087        2.63212       -1.18854
H         -0.84203        3.53834       -1.63148
H         -1.11447        3.72871        0.10697
H          1.03937        5.16911       -1.56955
H         -0.37927        5.92455       -0.83339
H          1.76265        6.25394        0.53715
H          0.48109        5.42325        1.44567
H          2.86840        4.09383        0.03873
H          2.59694        4.20039        1.80006
H          2.90164        0.71028       -0.19242
