42
elec74_conf-19.log	Energy: -798561.5119714
I          4.31824       -2.06652        0.05414
C          2.33963       -1.29737       -0.06777
C          1.25702       -2.18541        0.13374
C         -0.05015       -1.72159        0.06789
C         -0.28392       -0.36038       -0.20452
C         -1.43780        0.49750       -0.36325
C         -2.85803        0.23114       -0.28047
C         -3.45166       -0.95086       -0.01094
C         -4.90573       -1.12560        0.05290
C         -5.45445       -2.39185        0.33741
C         -6.83885       -2.53881        0.39360
C         -7.64370       -1.42165        0.16530
C         -7.00983       -0.20291       -0.11019
N         -5.69136       -0.05359       -0.16570
N         -1.03532        1.74017       -0.62982
N          0.30750        1.75104       -0.64388
C          1.06237        2.96786       -0.99317
C          0.18976        4.21122       -0.86666
C         -0.24643        4.46445        0.59186
C          0.71637        3.79143        1.58818
C          2.13298        3.74784        1.03115
O          2.22335        3.03989       -0.21081
C          0.82862        0.50055       -0.40151
C          2.16020        0.05268       -0.33428
H          1.45270       -3.23752        0.34299
H         -0.87288       -2.41862        0.22589
H         -3.50493        1.09417       -0.45759
H         -2.85853       -1.84775        0.17586
H         -4.79322       -3.24394        0.51049
H         -7.28367       -3.51274        0.61263
H         -8.73312       -1.48531        0.19812
H         -7.61013        0.69642       -0.29476
H          1.41727        2.84708       -2.03059
H          0.81032        5.04244       -1.23648
H         -0.67718        4.12362       -1.53370
H         -0.27725        5.55095        0.77154
H         -1.26341        4.07992        0.74796
H          0.72516        4.32545        2.55149
H          0.38647        2.76268        1.80045
H          2.51284        4.77673        0.88075
H          2.82140        3.23837        1.72250
H          2.99039        0.74191       -0.47043
