42
elec74_conf-3.log	Energy: -798566.1004022
I          4.23885       -2.19693        0.05161
C          2.28797       -1.36189       -0.07062
C          1.17500       -2.21623        0.11023
C         -0.11677       -1.70991        0.04656
C         -0.30260       -0.33735       -0.20498
C         -1.42388        0.56427       -0.35602
C         -2.85416        0.34340       -0.28210
C         -3.47464       -0.82656       -0.02245
C         -4.92156       -1.04879        0.05284
C         -5.87687       -0.03238       -0.15574
C         -7.22928       -0.34236       -0.06102
C         -7.60479       -1.65533        0.23833
C         -6.59002       -2.59768        0.42823
N         -5.29261       -2.31211        0.34017
N         -0.97998        1.79560       -0.60273
N          0.36483        1.75943       -0.61424
C          1.18454        2.93362       -0.94281
C          0.34985        4.21295       -1.00541
C         -0.07121        4.68615        0.38970
C          1.14107        4.72239        1.32606
C          1.86911        3.38396        1.29503
O          2.25256        3.03158       -0.03460
C          0.83837        0.48739       -0.38417
C          2.15413       -0.00207       -0.31589
H          1.33442       -3.27746        0.30339
H         -0.96286       -2.38138        0.18993
H         -3.43784        1.25084       -0.46064
H         -2.90167       -1.73594        0.16182
H         -5.56037        0.98512       -0.38936
H         -7.98467        0.43141       -0.21930
H         -8.65447       -1.94371        0.32231
H         -6.84360       -3.63827        0.66391
H          1.66452        2.74071       -1.91621
H          0.99290        4.97206       -1.47964
H         -0.52180        4.05362       -1.65392
H         -0.54183        5.67973        0.32152
H         -0.83255        3.99687        0.78823
H          1.84063        5.51468        1.00743
H          0.83706        4.95249        2.36044
H          2.80392        3.41113        1.87237
H          1.22974        2.58811        1.72221
H          3.00798        0.66262       -0.42992
