42
elec74_conf-21.log	Energy: -798560.8269695
I          4.28900       -2.13038        0.05120
C          2.32782       -1.32305       -0.08534
C          1.22534       -2.19406        0.08194
C         -0.07334       -1.70583        0.01572
C         -0.27706       -0.33419       -0.22721
C         -1.40761        0.55770       -0.36647
C         -2.83530        0.32156       -0.29125
C         -3.44225       -0.85830       -0.04473
C         -4.88638       -1.09757        0.03153
C         -5.85348       -0.08943       -0.16207
C         -7.20210       -0.41579       -0.06814
C         -7.56206       -1.73653        0.21564
C         -6.53633       -2.66973        0.39144
N         -5.24244       -2.36848        0.30391
N         -0.97633        1.79609       -0.60260
N          0.36781        1.77223       -0.62837
C          1.20359        2.95802       -0.87790
C          0.37264        4.23676       -1.08094
C          0.33197        5.07113        0.21224
C          0.31652        4.15118        1.43403
C          1.59951        3.30726        1.45761
O          2.14694        3.09674        0.15122
C          0.85337        0.50525       -0.40133
C          2.17565        0.03601       -0.32437
H          1.39877       -3.25410        0.26941
H         -0.91033       -2.39001        0.15237
H         -3.42914        1.22482       -0.45688
H         -2.85871       -1.76361        0.12603
H         -5.54901        0.93440       -0.38376
H         -7.96653        0.35130       -0.21505
H         -8.60822       -2.03776        0.29835
H         -6.77764       -3.71596        0.61468
H          1.80468        2.73582       -1.77289
H          0.83097        4.81791       -1.89396
H         -0.63948        3.95730       -1.39839
H          1.21780        5.72639        0.26297
H         -0.54980        5.72952        0.20705
H          0.24362        4.72769        2.36951
H         -0.57141        3.50211        1.38532
H          2.39745        3.82377        2.01225
H          1.42621        2.33192        1.94753
H          3.02211        0.71343       -0.42097
