42
elec74_conf-12.log	Energy: -798560.9600957
I          4.73196       -1.58682        0.03654
C          2.64802       -1.16768       -0.04119
C          1.74026       -2.22410        0.21863
C          0.37265       -1.99155        0.18192
C         -0.08719       -0.69691       -0.11836
C         -1.37757       -0.07141       -0.25718
C         -2.67416       -0.70063       -0.09474
C         -3.86487       -0.08314       -0.24183
C         -5.15332       -0.75618       -0.06733
C         -6.35493       -0.04134       -0.24200
C         -7.57137       -0.69926       -0.07184
C         -7.56216       -2.05284        0.26810
C         -6.31942       -2.68196        0.42107
N         -5.15531       -2.06340        0.26114
N         -1.22311        1.21415       -0.56466
N          0.09875        1.46725       -0.62420
C          0.60382        2.79232       -1.02589
C         -0.46085        3.86641       -0.83461
C         -0.83768        4.04393        0.65110
C          0.29685        3.56425        1.57655
C          1.65655        3.76668        0.92114
O          1.78480        3.07368       -0.32582
C          0.84711        0.34016       -0.37265
C          2.23786        0.12492       -0.33693
H          2.12187       -3.21937        0.44842
H         -0.32976       -2.80350        0.38190
H         -2.68171       -1.76171        0.16791
H         -3.88902        0.97727       -0.50703
H         -6.32135        1.01731       -0.50841
H         -8.51431       -0.16252       -0.20300
H         -8.48834       -2.61264        0.41236
H         -6.27402       -3.74500        0.68783
H          0.90118        2.72539       -2.08614
H         -0.01920        4.79161       -1.23690
H         -1.34069        3.62752       -1.44521
H         -1.05594        5.10724        0.83952
H         -1.75410        3.48013        0.87295
H          0.27756        4.10245        2.53735
H          0.17117        2.49585        1.81044
H          1.83693        4.84497        0.74729
H          2.47039        3.39365        1.56137
H          2.93733        0.93705       -0.52032
