42
elec74_conf-2.log	Energy: -798565.4897853
I          4.82169       -1.50662        0.03870
C          2.72529       -1.15988       -0.03291
C          1.85437       -2.24857        0.21912
C          0.47883       -2.06367        0.19007
C         -0.02847       -0.78388       -0.09732
C         -1.33810       -0.19441       -0.22656
C         -2.61885       -0.86114       -0.06294
C         -3.82049       -0.25965       -0.18698
C         -5.13589       -0.88577       -0.03231
C         -5.31552       -2.25187        0.27134
C         -6.60506       -2.75648        0.39913
C         -7.69062       -1.89355        0.22240
C         -7.41904       -0.55521       -0.07662
N         -6.18900       -0.06169       -0.20106
N         -1.22434        1.09583       -0.52509
N          0.08974        1.38903       -0.59202
C          0.58062        2.71737       -0.98658
C         -0.54354        3.75246       -1.02495
C         -0.99899        4.14855        0.38309
C          0.21224        4.50926        1.24936
C          1.24420        3.38898        1.20217
O          1.63591        3.09730       -0.14005
C          0.87091        0.28373       -0.34666
C          2.26755        0.12011       -0.31502
H          2.27078       -3.23206        0.43900
H         -0.19026       -2.90415        0.38729
H         -2.55587       -1.92599        0.17790
H         -3.85932        0.80541       -0.42709
H         -4.45376       -2.90761        0.40438
H         -6.76387       -3.81198        0.63383
H         -8.72017       -2.24556        0.31297
H         -8.24372        0.15287       -0.22278
H          1.04418        2.61719       -1.98167
H         -0.12918        4.63129       -1.54527
H         -1.37996        3.36721       -1.62283
H         -1.70344        4.99316        0.32475
H         -1.54617        3.30592        0.83496
H          0.67890        5.43821        0.87796
H         -0.08687        4.69006        2.29490
H          2.17166        3.66193        1.72497
H          0.84185        2.47550        1.68005
H          2.93733        0.96078       -0.48404
