42
elec74_conf-9.log	Energy: -798566.1495927
I          3.89351       -2.67095       -0.01468
C          2.02862       -1.65242       -0.06201
C          0.83917       -2.41402        0.01452
C         -0.40032       -1.78620        0.00068
C         -0.45614       -0.38328       -0.09785
C         -1.48476        0.63533       -0.14291
C         -2.93038        0.54365       -0.09653
C         -3.66091       -0.58647        0.00376
C         -5.12304       -0.67859        0.05181
C         -5.97533        0.44405        0.00084
C         -7.35195        0.25397        0.05326
C         -7.85360       -1.04701        0.15526
C         -6.93492       -2.09952        0.19969
N         -5.61537       -1.92926        0.15022
N         -0.92483        1.83826       -0.24637
N          0.40947        1.66949       -0.28441
C          1.32947        2.77725       -0.36278
C          0.64103        4.10087       -0.67280
C          1.68233        5.22576       -0.66962
C          2.49280        5.20198        0.63092
C          3.05693        3.80467        0.87257
O          2.03040        2.82516        0.86539
C          0.75798        0.34347       -0.18325
C          2.02109       -0.26719       -0.15581
H          0.89772       -3.50013        0.09074
H         -1.30589       -2.38855        0.06735
H         -3.42310        1.51837       -0.15145
H         -3.17815       -1.56277        0.05871
H         -5.56094        1.45005       -0.07821
H         -8.02871        1.11126        0.01529
H         -8.92675       -1.24314        0.19950
H         -7.28861       -3.13452        0.27967
H          2.05755        2.54499       -1.17041
H          0.11945        4.02969       -1.63873
H         -0.12481        4.27470        0.09692
H          2.36600        5.09792       -1.52884
H          1.18765        6.19997       -0.80624
H          3.31478        5.93601        0.60081
H          1.84205        5.47160        1.48010
H          3.81237        3.56229        0.09491
H          3.54818        3.72562        1.85298
H          2.93851        0.31836       -0.18284
