42
elec74_conf-15.log	Energy: -798561.9368769
I          4.96382       -1.43550        0.03993
C          2.85774       -1.15787       -0.03309
C          2.02343       -2.29483        0.10061
C          0.64271       -2.15430        0.07223
C          0.09371       -0.87059       -0.09511
C         -1.23498       -0.31398       -0.16281
C         -2.49185       -1.03624       -0.05982
C         -3.71315       -0.46799       -0.13996
C         -5.00669       -1.14831       -0.03835
C         -5.13977       -2.53835        0.16318
C         -6.41148       -3.09487        0.24648
C         -7.52562       -2.25884        0.12808
C         -7.29964       -0.89351       -0.06979
N         -6.08701       -0.35039       -0.15118
N         -1.16490        1.00103       -0.33793
N          0.14042        1.33969       -0.41054
C          0.56611        2.73581       -0.42158
C         -0.39149        3.61265       -1.24173
C         -0.32384        5.04995       -0.72313
C         -0.77418        5.10454        0.75040
C         -0.41425        3.78775        1.46150
O          0.75852        3.21551        0.88781
C          0.95534        0.24533       -0.24158
C          2.35505        0.12539       -0.20208
H          2.47213       -3.27995        0.23142
H          0.00156       -3.03169        0.18201
H         -2.39250       -2.11416        0.09517
H         -3.78805        0.61054       -0.29666
H         -4.25622       -3.17203        0.25309
H         -6.53446       -4.16957        0.40224
H         -8.54266       -2.65157        0.18718
H         -8.14789       -0.20519       -0.16730
H          1.56839        2.73725       -0.87494
H         -0.12035        3.54410       -2.30597
H         -1.41302        3.21830       -1.14586
H          0.71219        5.41788       -0.80819
H         -0.94428        5.71204       -1.34570
H         -0.29958        5.96021        1.25525
H         -1.86426        5.25770        0.81494
H         -0.18791        3.94439        2.52522
H         -1.24736        3.06594        1.40060
H          3.01145        0.99083       -0.28427
