42
elec74_conf-10.log	Energy: -798562.5191367
I          4.89901       -1.52305        0.04084
C          2.80120       -1.18745       -0.03531
C          1.93578       -2.30120        0.09615
C          0.55939       -2.12288        0.06581
C          0.04819       -0.82393       -0.10145
C         -1.26540       -0.23320       -0.17067
C         -2.53607       -0.92624       -0.07116
C         -3.75002       -0.34369       -0.15471
C         -5.01091       -1.08026       -0.04558
C         -6.23982       -0.39843       -0.14408
C         -7.42911       -1.11683       -0.03781
C         -7.36566       -2.49629        0.16379
C         -6.09877       -3.08915        0.24915
N         -4.96038       -2.41289        0.14924
N         -1.16082        1.08067       -0.34423
N          0.15399        1.38442       -0.41468
C          0.61993        2.76658       -0.42476
C         -0.31498        3.67412       -1.23790
C         -0.20552        5.10662       -0.71321
C         -0.64970        5.16719        0.76188
C         -0.32011        3.83896        1.46703
O          0.83345        3.23878        0.88488
C          0.93941        0.26792       -0.24552
C          2.33522        0.10983       -0.20385
H          2.35706       -3.29836        0.22695
H         -0.10910       -2.97962        0.17376
H         -2.50116       -2.00754        0.08506
H         -3.81627        0.73607       -0.31278
H         -6.24850        0.68219       -0.30225
H         -8.39278       -0.60664       -0.11145
H         -8.26873       -3.10325        0.25346
H         -6.01097       -4.17106        0.40719
H          1.61979        2.74047       -0.88256
H         -0.04923        3.60285       -2.30331
H         -1.34669        3.30765       -1.14045
H          0.84024        5.44538       -0.79944
H         -0.80846        5.78924       -1.33092
H         -0.15240        6.00901        1.26815
H         -1.73547        5.34773        0.83049
H         -0.08420        3.98638        2.53002
H         -1.17210        3.13913        1.40870
H          3.01584        0.95658       -0.28360
