42
elec74_conf-20.log	Energy: -798560.3861379
I          4.79507       -1.51033        0.03836
C          2.70095       -1.14688       -0.03650
C          1.82186       -2.22595        0.22876
C          0.44854       -2.02965        0.19470
C         -0.04803       -0.74909       -0.10874
C         -1.35379       -0.15548       -0.24635
C         -2.63865       -0.81230       -0.07782
C         -3.83654       -0.20537       -0.21266
C         -5.15599       -0.82115       -0.05258
C         -5.34481       -2.18263        0.26627
C         -6.63762       -2.67754        0.39830
C         -7.71758       -1.80983        0.21064
C         -7.43708       -0.47678       -0.10322
N         -6.20381        0.00757       -0.23188
N         -1.23184        1.13146       -0.55860
N          0.08234        1.41748       -0.62263
C          0.55291        2.75398       -1.03090
C         -0.54224        3.79918       -0.85313
C         -0.93042        3.97971        0.62931
C          0.21244        3.53894        1.56369
C          1.56898        3.77321        0.91245
O          1.72233        3.07103       -0.32677
C          0.85911        0.31120       -0.36867
C          2.25508        0.13299       -0.33525
H          2.23010       -3.21003        0.46096
H         -0.22838       -2.86192        0.39999
H         -2.58289       -1.87431        0.17705
H         -3.86832        0.85656       -0.46720
H         -4.48737       -2.84234        0.40746
H         -6.80335       -3.72933        0.64464
H         -8.74945       -2.15426        0.30397
H         -8.25712        0.23481       -0.25836
H          0.85712        2.68678       -2.08912
H         -0.12479        4.73261       -1.26219
H         -1.41273        3.53073       -1.46484
H         -1.17728        5.03853        0.80694
H         -1.83323        3.39486        0.85212
H          0.17392        4.08412        2.51997
H          0.11538        2.46931        1.80602
H          1.71946        4.85428        0.72808
H          2.39043        3.42996        1.55958
H          2.93158        0.96367       -0.52205
