42
elec74_conf-22.log	Energy: -798560.9666092
I          4.23428       -2.16239        0.05306
C          2.28308       -1.32717       -0.07376
C          1.17050       -2.17962        0.11873
C         -0.12029       -1.67294        0.04910
C         -0.30552       -0.30302       -0.21794
C         -1.42867        0.59286       -0.37910
C         -2.85848        0.37015       -0.30570
C         -3.47904       -0.79713       -0.03377
C         -4.92598       -1.01902        0.03996
C         -5.88128       -0.00625       -0.18634
C         -7.23383       -0.31549       -0.09182
C         -7.60987       -1.62426        0.22494
C         -6.59526       -2.56321        0.43158
N         -5.29768       -2.27835        0.34386
N         -0.98645        1.82300       -0.63830
N          0.35701        1.79067       -0.64465
C          1.15200        2.98341       -0.98744
C          0.32398        4.25535       -0.84470
C         -0.09689        4.50838        0.61839
C          0.84569        3.79150        1.60345
C          2.25768        3.70479        1.03986
O          2.31830        3.00883       -0.21062
C          0.83530        0.52221       -0.40578
C          2.15081        0.02937       -0.33492
H          1.32961       -3.23864        0.32384
H         -0.96724       -2.34181        0.19939
H         -3.44302        1.27464       -0.49637
H         -2.90611       -1.70385        0.16317
H         -5.56449        1.00791       -0.43368
H         -7.98900        0.45557       -0.26382
H         -8.65970       -1.91196        0.30937
H         -6.84916       -3.60052        0.68107
H          1.49768        2.86056       -2.02778
H          0.97177        5.06820       -1.20852
H         -0.54790        4.20535       -1.50916
H         -0.08908        5.59335        0.80956
H         -1.12612        4.15817        0.77568
H          0.87683        4.31455        2.57227
H          0.48115        2.77258        1.80603
H          2.67295        4.72134        0.89971
H          2.93018        3.16337        1.72249
H          3.00442        0.69041       -0.46525
