22
elec73_conf-0.log	Energy: -1984049.2639554
O         -0.50517       -2.36073       -0.02998
C         -1.04315       -1.27240       -0.01149
N         -2.44983       -1.22134       -0.00935
C         -3.19672       -0.07107        0.00203
N         -4.55826       -0.21723       -0.04463
N         -2.66165        1.10780        0.01452
C         -1.28708        1.19994       -0.00014
C         -0.41637        0.06569       -0.00030
C          0.98529        0.27990       -0.00014
Br         2.21673       -1.17992        0.00982
C          1.53978        1.56728       -0.00411
C          3.02434        1.81564       -0.00368
C          0.64704        2.65854       -0.00791
C         -0.72430        2.49112       -0.00513
H         -2.88941       -2.13517       -0.07011
H         -4.97654       -1.05360        0.34475
H         -5.07031        0.64372        0.11110
H          3.50612        1.37057        0.88137
H          3.50826        1.36041       -0.88234
H          3.23550        2.89442       -0.00959
H          1.06455        3.66878       -0.01201
H         -1.40710        3.34138       -0.00564
