11
elec48_conf-0.log	Energy: -1770825.2920497
Br         1.79450        0.00515        0.00004
C         -0.10651        0.01494       -0.00000
C         -0.81118       -1.19593       -0.00000
N         -2.14242       -1.24435       -0.00003
C         -2.82315       -0.09587       -0.00006
C         -2.20521        1.15813       -0.00006
C         -0.81074        1.21950       -0.00003
H         -0.26875       -2.14721        0.00002
H         -3.91609       -0.17370       -0.00008
H         -2.80311        2.07212       -0.00008
H         -0.28202        2.17422       -0.00003
