11
elec47_conf-0.log	Energy: -444298.0961177
Cl         2.23955        0.01093       -0.00006
C          0.49706        0.01748       -0.00001
C         -0.20680       -1.19414        0.00000
N         -1.53732       -1.24592        0.00004
C         -2.22001       -0.09845        0.00006
C         -1.60366        1.15657        0.00005
C         -0.20985        1.22061        0.00001
H          0.34235       -2.14167       -0.00001
H         -3.31280       -0.17759        0.00009
H         -2.20350        2.06922        0.00006
H          0.32248        2.17332       -0.00001
