13
elec22_conf-0.log	Energy: -252942.1713000
N          2.41766       -0.84543       -0.04794
C          1.18608       -0.24669       -0.00675
C         -0.00088       -1.01623       -0.00591
C         -1.20184       -0.32806        0.00024
F         -2.34706       -1.01763        0.00317
C         -1.24059        1.06760        0.00290
C         -0.00597        1.71661        0.00214
N          1.17337        1.09496        0.00122
H          2.50839       -1.81797        0.21079
H          3.20889       -0.24009        0.13334
H          0.00982       -2.10696       -0.01592
H         -2.18842        1.60530        0.00775
H          0.02681        2.81242        0.00679
