11
elec46_conf-0.log	Energy: -218175.2923858
F         -2.25765        0.02318       -0.00001
C         -0.92009        0.02247       -0.00000
C         -0.23144       -1.19257        0.00000
N          1.09965       -1.25005        0.00001
C          1.78557       -0.10423        0.00001
C          1.17353        1.15378        0.00000
C         -0.22057        1.22446       -0.00000
H         -0.79537       -2.13213        0.00000
H          2.87799       -0.18608        0.00001
H          1.77782        2.06345        0.00000
H         -0.76125        2.17301       -0.00001
