13
elec51_conf-0.log	Energy: -479062.4740415
N         -3.15434       -0.09825       -0.04934
C         -1.78419       -0.02154       -0.00628
N         -1.11708       -1.18339       -0.00038
C          0.21427       -1.16707       -0.00193
C          0.95840        0.01372       -0.00119
Cl         2.70409       -0.03698        0.00401
C          0.27407        1.23497       -0.00077
C         -1.11296        1.22454       -0.00517
H         -3.54845       -1.01106        0.14426
H         -3.70016        0.70275        0.23757
H          0.72877       -2.13407        0.00114
H          0.82937        2.17465        0.00155
H         -1.67660        2.16003       -0.01255
