13
elec53_conf-1.log	Energy: -479062.6756214
N         -0.63253        2.04246       -0.04240
C          0.15947        0.93357       -0.00611
N          1.48571        1.11579        0.00404
C          2.29209        0.05401        0.00407
C          1.83913       -1.26488        0.00018
C          0.45476       -1.47560       -0.00087
C         -0.38978       -0.37667       -0.00415
Cl        -2.13183       -0.58231        0.00215
H         -0.17829        2.93215        0.11578
H         -1.62159        1.95256        0.14298
H          3.36733        0.26729        0.01084
H          2.53830       -2.10226        0.00183
H          0.02908       -2.48075        0.00184
