13
elec53_conf-0.log	Energy: -479062.6758272
N          0.63254        2.04246       -0.04240
C         -0.15947        0.93356       -0.00611
N         -1.48571        1.11578        0.00404
C         -2.29209        0.05401        0.00407
C         -1.83913       -1.26487        0.00018
C         -0.45476       -1.47560       -0.00087
C          0.38978       -0.37667       -0.00415
Cl         2.13183       -0.58231        0.00215
H          0.17829        2.93215        0.11576
H          1.62160        1.95257        0.14298
H         -3.36732        0.26730        0.01084
H         -2.53830       -2.10225        0.00183
H         -0.02909       -2.48075        0.00184
