13
elec19_conf-0.log	Energy: -377138.2606529
N         -3.47406       -1.51528       -0.04665
C         -2.53498       -0.51858       -0.00650
C         -1.14989       -0.82081       -0.00775
C         -0.25921        0.24227       -0.00204
I          1.82947       -0.13972        0.00078
C         -0.72371        1.56284        0.00159
C         -2.10926        1.73572        0.00282
N         -2.99456        0.74022        0.00272
H         -3.21307       -2.45806        0.20656
H         -4.42938       -1.23227        0.13418
H         -0.80583       -1.85575       -0.01760
H         -0.04747        2.41687        0.00579
H         -2.52360        2.75113        0.00856
