12
elec58_conf-0.log	Energy: -353201.1369699
I         -1.40568       -0.06584        0.00012
C          0.67073       -0.36810       -0.00005
N          1.26006       -1.53352       -0.00007
C          2.60691       -1.25997       -0.00019
C          2.81580        0.10079       -0.00024
N          1.55865        0.67816       -0.00014
C          1.26131        2.09714       -0.00015
H          3.35092       -2.05510       -0.00024
H          3.71950        0.70527       -0.00032
H          2.20627        2.65505       -0.00025
H          0.68250        2.37629        0.89296
H          0.68233        2.37626       -0.89315
