21
elec55_conf-0.log	Energy: -1915888.1380942
Br         3.84457       -0.00000        0.00000
C          1.94125        0.00000        0.00000
C          1.24981       -1.16281        0.34873
C         -0.14456       -1.15532        0.34437
C          1.24981        1.16281       -0.34873
C         -0.14456        1.15532       -0.34437
C         -0.86790        0.00000        0.00000
C         -2.34988        0.00000        0.00000
C         -3.08791        1.13771        0.36614
C         -4.48290        1.08456        0.34867
N         -5.17938       -0.00000        0.00000
C         -4.48290       -1.08456       -0.34867
C         -3.08790       -1.13771       -0.36614
H          1.79789       -2.06344        0.62854
H         -0.67912       -2.06032        0.63945
H          1.79789        2.06344       -0.62854
H         -0.67912        2.06032       -0.63945
H         -2.58350        2.05108        0.68696
H         -5.06454        1.96737        0.63908
H         -5.06454       -1.96737       -0.63908
H         -2.58350       -2.05108       -0.68696
