12
elec59_conf-0.log	Energy: -353188.8220815
I         -1.41696       -0.06148        0.00013
C          0.65023       -0.36392       -0.00005
C          1.36573       -1.55225       -0.00008
C          2.71460       -1.12976       -0.00021
N          2.81615        0.19730       -0.00026
N          1.55275        0.65821       -0.00015
C          1.30113        2.08423       -0.00018
H          0.96303       -2.56116       -0.00002
H          3.61544       -1.74287       -0.00028
H          0.73447        2.38284        0.89472
H          2.27891        2.57861       -0.00024
H          0.73438        2.38280       -0.89503
