13
elec61_conf-0.log	Energy: -1867886.9233011
N         -3.52258       -0.71854       -0.04898
C         -2.17175       -0.51625       -0.00548
N         -1.35505       -1.57024        0.00373
C         -0.03248       -1.38648        0.00260
C          0.55076       -0.12045       -0.00158
Br         2.44187        0.07754        0.00056
C         -0.28188        1.00981       -0.00107
C         -1.64365        0.79719       -0.00454
F         -2.50827        1.82980        0.00366
H         -3.84683       -1.65877        0.13821
H         -4.13693        0.05207        0.17505
H          0.59562       -2.28261        0.00882
H          0.11471        2.02572        0.00237
