11
elec18_conf-0.log	Energy: -342373.6024062
I          1.55231        0.00000       -0.00001
C         -0.56802        0.00000        0.00000
C         -1.27189       -1.20505        0.00003
C         -2.67029       -1.14057        0.00004
N         -3.36201        0.00000        0.00002
C         -2.67029        1.14057       -0.00000
C         -1.27189        1.20505       -0.00001
H         -0.76038       -2.16837        0.00005
H         -3.25172       -2.07005        0.00006
H         -3.25172        2.07005       -0.00002
H         -0.76038        2.16837       -0.00003
