14
elec01_g16.log	Energy: -583511.9913188
Cl         0.83199        1.92592        0.00028
C          0.49400        0.25571        0.00004
C         -0.67961       -0.48896       -0.00007
N         -2.03548        0.02031       -0.00002
N         -0.40751       -1.81856       -0.00026
C          0.89800       -1.90965       -0.00026
N          1.50569       -0.67468       -0.00008
C          2.93021       -0.39480       -0.00003
H          1.47896       -2.83196       -0.00039
H          3.21033        0.18127        0.89377
H          3.21035        0.18151       -0.89367
H          3.47207       -1.34887       -0.00015
O         -2.94379       -0.78784       -0.00015
O         -2.15746        1.23961        0.00016
