14
elec01_conf-2.log	Energy: -583511.9913364
Cl        -0.83198        1.92592       -0.00000
C         -0.49400        0.25571        0.00000
C          0.67960       -0.48896        0.00000
N          2.03548        0.02031        0.00000
N          0.40751       -1.81856        0.00000
C         -0.89800       -1.90965        0.00000
N         -1.50569       -0.67468       -0.00000
C         -2.93021       -0.39480        0.00000
H         -1.47896       -2.83195        0.00000
H         -3.21034        0.18137        0.89373
H         -3.47207       -1.34887       -0.00002
H         -3.21034        0.18140       -0.89370
O          2.15746        1.23961        0.00001
O          2.94379       -0.78784       -0.00001
