17
elec43_conf-0.log	Energy: -897155.5697648
Cl         2.28589        1.96328       -0.00000
C          1.46705        0.43832        0.00000
C          0.04947        0.38209        0.00000
C         -0.56496       -0.91728        0.00000
N         -1.91392       -1.05238        0.00000
C         -2.65497        0.01332        0.00000
Cl        -4.38861       -0.19583       -0.00000
C         -2.15996        1.34965        0.00000
C         -0.79906        1.52265        0.00000
N          0.16032       -2.06287        0.00000
C          1.46486       -1.97840        0.00000
C          2.19425       -0.74785        0.00000
C          3.62337       -0.76862        0.00000
N          4.78238       -0.82854       -0.00000
H         -2.85275        2.19066        0.00000
H         -0.35825        2.52023        0.00000
H          2.03554       -2.91414       -0.00000
