11
elec71_conf-0.log	Energy: -1770825.8590610
Br        -1.79994        0.00000        0.00006
C          0.10011        0.00000       -0.00000
C          0.80233       -1.20564        0.00000
C          2.19982       -1.14102       -0.00005
N          2.89164        0.00000       -0.00010
C          2.19982        1.14102       -0.00010
C          0.80233        1.20564       -0.00006
H          0.28328       -2.16478        0.00005
H          2.78179       -2.06998       -0.00004
H          2.78179        2.06998       -0.00015
H          0.28328        2.16478       -0.00006
