12
elec72_conf-0.log	Energy: -2104077.3605226
Br         2.52034       -0.28523        0.00007
C          0.59933       -0.24675        0.00002
C         -0.06842        1.01681       -0.00004
N          0.58407        2.19998       -0.00008
N         -1.40693        1.02511       -0.00007
C         -2.04455       -0.12981       -0.00004
Cl        -3.78916       -0.09348       -0.00009
C         -1.38642       -1.36407        0.00002
N         -0.04908       -1.37576        0.00005
H          0.04037        3.05241       -0.00012
H          1.59390        2.22984       -0.00004
H         -1.92658       -2.31245        0.00005
